
     RDKit          2D

 60 59  0  0  0  0  0  0  0  0999 V2000
    0.0000    0.0000    0.0000 C   0  0  0  0  0  0  0  0  0  0  0  0
    1.5000    0.0000    0.0000 C   0  0  0  0  0  0  0  0  0  0  0  0
    3.0000    0.0000    0.0000 C   0  0  0  0  0  0  0  0  0  0  0  0
    4.5000    0.0000    0.0000 C   0  0  0  0  0  0  0  0  0  0  0  0
    6.0000    0.0000    0.0000 C   0  0  0  0  0  0  0  0  0  0  0  0
    7.5000    0.0000    0.0000 C   0  0  0  0  0  0  0  0  0  0  0  0
    9.0000    0.0000    0.0000 C   0  0  0  0  0  0  0  0  0  0  0  0
   10.5000    0.0000    0.0000 C   0  0  0  0  0  0  0  0  0  0  0  0
   12.0000    0.0000    0.0000 C   0  0  0  0  0  0  0  0  0  0  0  0
   -1.5000    0.0000    0.0000 P   0  0  0  0  0  5  0  0  0  0  0  0
   -3.0000   -0.0000    0.0000 C   0  0  0  0  0  0  0  0  0  0  0  0
   -4.5000   -0.0000    0.0000 C   0  0  0  0  0  0  0  0  0  0  0  0
   -6.0000   -0.0000    0.0000 C   0  0  0  0  0  0  0  0  0  0  0  0
   -7.5000   -0.0000    0.0000 C   0  0  0  0  0  0  0  0  0  0  0  0
   -9.0000   -0.0000    0.0000 C   0  0  0  0  0  0  0  0  0  0  0  0
  -10.5000   -0.0000    0.0000 C   0  0  0  0  0  0  0  0  0  0  0  0
  -12.0000   -0.0000    0.0000 C   0  0  0  0  0  0  0  0  0  0  0  0
  -13.5000   -0.0000    0.0000 C   0  0  0  0  0  0  0  0  0  0  0  0
  -15.0000   -0.0000    0.0000 C   0  0  0  0  0  0  0  0  0  0  0  0
   -1.5000   -1.5000    0.0000 S   0  0  0  0  0  0  0  0  0  0  0  0
   -1.5000    1.5000    0.0000 S   0  0  0  0  0  0  0  0  0  0  0  0
    0.0000    1.5000    0.0000 H   0  0  0  0  0  0  0  0  0  0  0  0
   -0.0000   -1.5000    0.0000 H   0  0  0  0  0  0  0  0  0  0  0  0
    1.5000   -1.5000    0.0000 H   0  0  0  0  0  0  0  0  0  0  0  0
    1.5000    1.5000    0.0000 H   0  0  0  0  0  0  0  0  0  0  0  0
    3.0000    1.5000    0.0000 H   0  0  0  0  0  0  0  0  0  0  0  0
    3.0000   -1.5000    0.0000 H   0  0  0  0  0  0  0  0  0  0  0  0
    4.5000   -1.5000    0.0000 H   0  0  0  0  0  0  0  0  0  0  0  0
    4.5000    1.5000    0.0000 H   0  0  0  0  0  0  0  0  0  0  0  0
    6.0000    1.5000    0.0000 H   0  0  0  0  0  0  0  0  0  0  0  0
    6.0000   -1.5000    0.0000 H   0  0  0  0  0  0  0  0  0  0  0  0
    7.5000   -1.5000    0.0000 H   0  0  0  0  0  0  0  0  0  0  0  0
    7.5000    1.5000    0.0000 H   0  0  0  0  0  0  0  0  0  0  0  0
    9.0000    1.5000    0.0000 H   0  0  0  0  0  0  0  0  0  0  0  0
    9.0000   -1.5000    0.0000 H   0  0  0  0  0  0  0  0  0  0  0  0
   10.5000   -1.5000    0.0000 H   0  0  0  0  0  0  0  0  0  0  0  0
   10.5000    1.5000    0.0000 H   0  0  0  0  0  0  0  0  0  0  0  0
   13.5000    0.0000    0.0000 H   0  0  0  0  0  0  0  0  0  0  0  0
   12.0000    1.5000    0.0000 H   0  0  0  0  0  0  0  0  0  0  0  0
   12.0000   -1.5000    0.0000 H   0  0  0  0  0  0  0  0  0  0  0  0
   -3.1828    1.4888    0.0000 H   0  0  0  0  0  0  0  0  0  0  0  0
   -3.0000   -1.5000    0.0000 H   0  0  0  0  0  0  0  0  0  0  0  0
   -4.5000    1.5000    0.0000 H   0  0  0  0  0  0  0  0  0  0  0  0
   -4.5000   -1.5000    0.0000 H   0  0  0  0  0  0  0  0  0  0  0  0
   -6.0000   -1.5000    0.0000 H   0  0  0  0  0  0  0  0  0  0  0  0
   -6.0000    1.5000    0.0000 H   0  0  0  0  0  0  0  0  0  0  0  0
   -7.5000    1.5000    0.0000 H   0  0  0  0  0  0  0  0  0  0  0  0
   -7.5000   -1.5000    0.0000 H   0  0  0  0  0  0  0  0  0  0  0  0
   -9.0000   -1.5000    0.0000 H   0  0  0  0  0  0  0  0  0  0  0  0
   -9.0000    1.5000    0.0000 H   0  0  0  0  0  0  0  0  0  0  0  0
  -10.5000    1.5000    0.0000 H   0  0  0  0  0  0  0  0  0  0  0  0
  -10.5000   -1.5000    0.0000 H   0  0  0  0  0  0  0  0  0  0  0  0
  -12.0000   -1.5000    0.0000 H   0  0  0  0  0  0  0  0  0  0  0  0
  -12.0000    1.5000    0.0000 H   0  0  0  0  0  0  0  0  0  0  0  0
  -13.5000    1.5000    0.0000 H   0  0  0  0  0  0  0  0  0  0  0  0
  -13.5000   -1.5000    0.0000 H   0  0  0  0  0  0  0  0  0  0  0  0
  -16.5000   -0.0000    0.0000 H   0  0  0  0  0  0  0  0  0  0  0  0
  -15.0000   -1.5000    0.0000 H   0  0  0  0  0  0  0  0  0  0  0  0
  -15.0000    1.5000    0.0000 H   0  0  0  0  0  0  0  0  0  0  0  0
   -2.6979    2.4028    0.0000 H   0  0  0  0  0  0  0  0  0  0  0  0
  1  2  1  0
  2  3  1  0
  3  4  1  0
  4  5  1  0
  5  6  1  0
  6  7  1  0
  7  8  1  0
  8  9  1  0
  1 10  1  0
 10 11  1  0
 11 12  1  0
 12 13  1  0
 13 14  1  0
 14 15  1  0
 15 16  1  0
 16 17  1  0
 17 18  1  0
 18 19  1  0
 10 20  2  0
 10 21  1  0
  1 22  1  0
  1 23  1  0
  2 24  1  0
  2 25  1  0
  3 26  1  0
  3 27  1  0
  4 28  1  0
  4 29  1  0
  5 30  1  0
  5 31  1  0
  6 32  1  0
  6 33  1  0
  7 34  1  0
  7 35  1  0
  8 36  1  0
  8 37  1  0
  9 38  1  0
  9 39  1  0
  9 40  1  0
 11 41  1  0
 11 42  1  0
 12 43  1  0
 12 44  1  0
 13 45  1  0
 13 46  1  0
 14 47  1  0
 14 48  1  0
 15 49  1  0
 15 50  1  0
 16 51  1  0
 16 52  1  0
 17 53  1  0
 17 54  1  0
 18 55  1  0
 18 56  1  0
 19 57  1  0
 19 58  1  0
 19 59  1  0
 21 60  1  0
M  END
$$$$
