
     RDKit          2D

 40 40  0  0  0  0  0  0  0  0999 V2000
    4.5000    0.0000    0.0000 C   0  0  0  0  0  0  0  0  0  0  0  0
    6.0000    0.0000    0.0000 C   0  0  0  0  0  0  0  0  0  0  0  0
    7.5000    0.0000    0.0000 C   0  0  0  0  0  0  0  0  0  0  0  0
    9.0000    0.0000    0.0000 C   0  0  0  0  0  0  0  0  0  0  0  0
   10.5000    0.0000    0.0000 C   0  0  0  0  0  0  0  0  0  0  0  0
   12.0000    0.0000    0.0000 C   0  0  0  0  0  0  0  0  0  0  0  0
   13.5000    0.0000    0.0000 C   0  0  0  0  0  0  0  0  0  0  0  0
   15.0000    0.0000    0.0000 C   0  0  0  0  0  0  0  0  0  0  0  0
    3.0000   -0.0000    0.0000 P   0  0  0  0  0  5  0  0  0  0  0  0
    3.0000   -1.5000    0.0000 S   0  0  0  0  0  0  0  0  0  0  0  0
    3.0000    1.5000    0.0000 S   0  0  0  0  0  0  0  0  0  0  0  0
    1.5000   -0.0000    0.0000 C   0  0  0  0  0  0  0  0  0  0  0  0
    0.7500   -1.2990    0.0000 C   0  0  0  0  0  0  0  0  0  0  0  0
   -0.7500   -1.2990    0.0000 C   0  0  0  0  0  0  0  0  0  0  0  0
   -1.5000   -0.0000    0.0000 C   0  0  0  0  0  0  0  0  0  0  0  0
   -0.7500    1.2990    0.0000 C   0  0  0  0  0  0  0  0  0  0  0  0
    0.7500    1.2990    0.0000 C   0  0  0  0  0  0  0  0  0  0  0  0
    4.5000   -1.5000    0.0000 H   0  0  0  0  0  0  0  0  0  0  0  0
    4.6828    1.4888    0.0000 H   0  0  0  0  0  0  0  0  0  0  0  0
    6.0000   -1.5000    0.0000 H   0  0  0  0  0  0  0  0  0  0  0  0
    6.0000    1.5000    0.0000 H   0  0  0  0  0  0  0  0  0  0  0  0
    7.5000    1.5000    0.0000 H   0  0  0  0  0  0  0  0  0  0  0  0
    7.5000   -1.5000    0.0000 H   0  0  0  0  0  0  0  0  0  0  0  0
    9.0000   -1.5000    0.0000 H   0  0  0  0  0  0  0  0  0  0  0  0
    9.0000    1.5000    0.0000 H   0  0  0  0  0  0  0  0  0  0  0  0
   10.5000    1.5000    0.0000 H   0  0  0  0  0  0  0  0  0  0  0  0
   10.5000   -1.5000    0.0000 H   0  0  0  0  0  0  0  0  0  0  0  0
   12.0000   -1.5000    0.0000 H   0  0  0  0  0  0  0  0  0  0  0  0
   12.0000    1.5000    0.0000 H   0  0  0  0  0  0  0  0  0  0  0  0
   13.5000    1.5000    0.0000 H   0  0  0  0  0  0  0  0  0  0  0  0
   13.5000   -1.5000    0.0000 H   0  0  0  0  0  0  0  0  0  0  0  0
   16.5000    0.0000    0.0000 H   0  0  0  0  0  0  0  0  0  0  0  0
   15.0000   -1.5000    0.0000 H   0  0  0  0  0  0  0  0  0  0  0  0
   15.0000    1.5000    0.0000 H   0  0  0  0  0  0  0  0  0  0  0  0
    4.1979    2.4028    0.0000 H   0  0  0  0  0  0  0  0  0  0  0  0
    1.5000   -2.5981    0.0000 H   0  0  0  0  0  0  0  0  0  0  0  0
   -1.5000   -2.5981    0.0000 H   0  0  0  0  0  0  0  0  0  0  0  0
   -3.0000   -0.0000    0.0000 H   0  0  0  0  0  0  0  0  0  0  0  0
   -1.5000    2.5981    0.0000 H   0  0  0  0  0  0  0  0  0  0  0  0
    1.5000    2.5981    0.0000 H   0  0  0  0  0  0  0  0  0  0  0  0
  1  2  1  0
  2  3  1  0
  3  4  1  0
  4  5  1  0
  5  6  1  0
  6  7  1  0
  7  8  1  0
  1  9  1  0
  9 10  2  0
  9 11  1  0
  9 12  1  0
 12 13  2  0
 13 14  1  0
 14 15  2  0
 15 16  1  0
 16 17  2  0
 17 12  1  0
  1 18  1  0
  1 19  1  0
  2 20  1  0
  2 21  1  0
  3 22  1  0
  3 23  1  0
  4 24  1  0
  4 25  1  0
  5 26  1  0
  5 27  1  0
  6 28  1  0
  6 29  1  0
  7 30  1  0
  7 31  1  0
  8 32  1  0
  8 33  1  0
  8 34  1  0
 11 35  1  0
 13 36  1  0
 14 37  1  0
 15 38  1  0
 16 39  1  0
 17 40  1  0
M  END
$$$$
