
     RDKit          2D

 60 59  0  0  0  0  0  0  0  0999 V2000
    0.0000    0.0000    0.0000 C   0  0  0  0  0  0  0  0  0  0  0  0
   -1.5000    0.0000    0.0000 P   0  0  0  0  0  5  0  0  0  0  0  0
   -1.5000    1.5000    0.0000 S   0  0  0  0  0  0  0  0  0  0  0  0
   -1.5000   -1.5000    0.0000 O   0  0  0  0  0  0  0  0  0  0  0  0
   -3.0000   -0.0000    0.0000 C   0  0  0  0  0  0  0  0  0  0  0  0
   -4.5000    0.0000    0.0000 C   0  0  0  0  0  0  0  0  0  0  0  0
   -6.0000    0.0000    0.0000 C   0  0  0  0  0  0  0  0  0  0  0  0
   -7.5000    0.0000    0.0000 C   0  0  0  0  0  0  0  0  0  0  0  0
   -4.5000   -1.5000    0.0000 C   0  0  0  0  0  0  0  0  0  0  0  0
   -4.5000   -3.0000    0.0000 C   0  0  0  0  0  0  0  0  0  0  0  0
   -4.5000   -4.5000    0.0000 C   0  0  0  0  0  0  0  0  0  0  0  0
   -4.5000   -6.0000    0.0000 C   0  0  0  0  0  0  0  0  0  0  0  0
   -4.5000   -7.5000    0.0000 C   0  0  0  0  0  0  0  0  0  0  0  0
    1.5000    0.0000    0.0000 C   0  0  0  0  0  0  0  0  0  0  0  0
    3.0000    0.0000    0.0000 C   0  0  0  0  0  0  0  0  0  0  0  0
    4.5000    0.0000    0.0000 C   0  0  0  0  0  0  0  0  0  0  0  0
    1.5000   -1.5000    0.0000 C   0  0  0  0  0  0  0  0  0  0  0  0
    1.5000   -3.0000    0.0000 C   0  0  0  0  0  0  0  0  0  0  0  0
    1.5000   -4.5000    0.0000 C   0  0  0  0  0  0  0  0  0  0  0  0
    1.5000   -6.0000    0.0000 C   0  0  0  0  0  0  0  0  0  0  0  0
    1.5000   -7.5000    0.0000 C   0  0  0  0  0  0  0  0  0  0  0  0
    0.0000    1.5000    0.0000 H   0  0  0  0  0  0  0  0  0  0  0  0
   -0.1828   -1.4888    0.0000 H   0  0  0  0  0  0  0  0  0  0  0  0
   -2.6979    2.4028    0.0000 H   0  0  0  0  0  0  0  0  0  0  0  0
   -2.8920   -0.8791    0.0000 H   0  0  0  0  0  0  0  0  0  0  0  0
   -3.1828    1.4888    0.0000 H   0  0  0  0  0  0  0  0  0  0  0  0
   -4.5000    1.5000    0.0000 H   0  0  0  0  0  0  0  0  0  0  0  0
   -6.0000    1.5000    0.0000 H   0  0  0  0  0  0  0  0  0  0  0  0
   -6.1080   -0.8791    0.0000 H   0  0  0  0  0  0  0  0  0  0  0  0
   -9.0000    0.0000    0.0000 H   0  0  0  0  0  0  0  0  0  0  0  0
   -7.5000    1.5000    0.0000 H   0  0  0  0  0  0  0  0  0  0  0  0
   -7.5000   -1.5000    0.0000 H   0  0  0  0  0  0  0  0  0  0  0  0
   -5.3791   -1.6080    0.0000 H   0  0  0  0  0  0  0  0  0  0  0  0
   -3.6209   -1.6080    0.0000 H   0  0  0  0  0  0  0  0  0  0  0  0
   -6.0000   -3.0000    0.0000 H   0  0  0  0  0  0  0  0  0  0  0  0
   -3.0000   -3.0000    0.0000 H   0  0  0  0  0  0  0  0  0  0  0  0
   -3.0000   -4.5000    0.0000 H   0  0  0  0  0  0  0  0  0  0  0  0
   -6.0000   -4.5000    0.0000 H   0  0  0  0  0  0  0  0  0  0  0  0
   -6.0000   -6.0000    0.0000 H   0  0  0  0  0  0  0  0  0  0  0  0
   -3.0000   -6.0000    0.0000 H   0  0  0  0  0  0  0  0  0  0  0  0
   -4.5000   -9.0000    0.0000 H   0  0  0  0  0  0  0  0  0  0  0  0
   -3.0000   -7.5000    0.0000 H   0  0  0  0  0  0  0  0  0  0  0  0
   -6.0000   -7.5000    0.0000 H   0  0  0  0  0  0  0  0  0  0  0  0
    1.5000    1.5000    0.0000 H   0  0  0  0  0  0  0  0  0  0  0  0
    3.0000    1.5000    0.0000 H   0  0  0  0  0  0  0  0  0  0  0  0
    3.1080   -0.8791    0.0000 H   0  0  0  0  0  0  0  0  0  0  0  0
    6.0000    0.0000    0.0000 H   0  0  0  0  0  0  0  0  0  0  0  0
    4.5000   -1.5000    0.0000 H   0  0  0  0  0  0  0  0  0  0  0  0
    4.5000    1.5000    0.0000 H   0  0  0  0  0  0  0  0  0  0  0  0
    2.3791   -1.6080    0.0000 H   0  0  0  0  0  0  0  0  0  0  0  0
    0.0112   -1.6828    0.0000 H   0  0  0  0  0  0  0  0  0  0  0  0
    3.0000   -3.0000    0.0000 H   0  0  0  0  0  0  0  0  0  0  0  0
    0.0000   -3.0000    0.0000 H   0  0  0  0  0  0  0  0  0  0  0  0
    0.0000   -4.5000    0.0000 H   0  0  0  0  0  0  0  0  0  0  0  0
    3.0000   -4.5000    0.0000 H   0  0  0  0  0  0  0  0  0  0  0  0
    3.0000   -6.0000    0.0000 H   0  0  0  0  0  0  0  0  0  0  0  0
    0.0000   -6.0000    0.0000 H   0  0  0  0  0  0  0  0  0  0  0  0
    1.5000   -9.0000    0.0000 H   0  0  0  0  0  0  0  0  0  0  0  0
    0.0000   -7.5000    0.0000 H   0  0  0  0  0  0  0  0  0  0  0  0
    3.0000   -7.5000    0.0000 H   0  0  0  0  0  0  0  0  0  0  0  0
  1  2  1  0
  2  3  1  0
  2  4  2  0
  2  5  1  0
  5  6  1  0
  6  7  1  0
  7  8  1  0
  6  9  1  0
  9 10  1  0
 10 11  1  0
 11 12  1  0
 12 13  1  0
  1 14  1  0
 14 15  1  0
 15 16  1  0
 14 17  1  0
 17 18  1  0
 18 19  1  0
 19 20  1  0
 20 21  1  0
  1 22  1  0
  1 23  1  0
  3 24  1  0
  5 25  1  0
  5 26  1  0
  6 27  1  0
  7 28  1  0
  7 29  1  0
  8 30  1  0
  8 31  1  0
  8 32  1  0
  9 33  1  0
  9 34  1  0
 10 35  1  0
 10 36  1  0
 11 37  1  0
 11 38  1  0
 12 39  1  0
 12 40  1  0
 13 41  1  0
 13 42  1  0
 13 43  1  0
 14 44  1  0
 15 45  1  0
 15 46  1  0
 16 47  1  0
 16 48  1  0
 16 49  1  0
 17 50  1  0
 17 51  1  0
 18 52  1  0
 18 53  1  0
 19 54  1  0
 19 55  1  0
 20 56  1  0
 20 57  1  0
 21 58  1  0
 21 59  1  0
 21 60  1  0
M  END
$$$$
