
     RDKit          2D

 54 53  0  0  0  0  0  0  0  0999 V2000
    0.0000    0.0000    0.0000 C   0  0  0  0  0  0  0  0  0  0  0  0
   -1.5000    0.0000    0.0000 P   0  0  0  0  0  5  0  0  0  0  0  0
   -1.5000    1.5000    0.0000 S   0  0  0  0  0  0  0  0  0  0  0  0
   -1.5000   -1.5000    0.0000 S   0  0  0  0  0  0  0  0  0  0  0  0
   -3.0000   -0.0000    0.0000 C   0  0  0  0  0  0  0  0  0  0  0  0
   -4.5000    0.0000    0.0000 C   0  0  0  0  0  0  0  0  0  0  0  0
   -6.0000    0.0000    0.0000 C   0  0  0  0  0  0  0  0  0  0  0  0
   -4.5000   -1.5000    0.0000 C   0  0  0  0  0  0  0  0  0  0  0  0
   -4.5000   -3.0000    0.0000 C   0  0  0  0  0  0  0  0  0  0  0  0
   -4.5000   -4.5000    0.0000 C   0  0  0  0  0  0  0  0  0  0  0  0
   -6.0000   -3.0000    0.0000 C   0  0  0  0  0  0  0  0  0  0  0  0
   -3.0000   -3.0000    0.0000 C   0  0  0  0  0  0  0  0  0  0  0  0
    1.5000    0.0000    0.0000 C   0  0  0  0  0  0  0  0  0  0  0  0
    3.0000    0.0000    0.0000 C   0  0  0  0  0  0  0  0  0  0  0  0
    1.5000   -1.5000    0.0000 C   0  0  0  0  0  0  0  0  0  0  0  0
    1.5000   -3.0000    0.0000 C   0  0  0  0  0  0  0  0  0  0  0  0
    1.5000   -4.5000    0.0000 C   0  0  0  0  0  0  0  0  0  0  0  0
    3.0000   -3.0000    0.0000 C   0  0  0  0  0  0  0  0  0  0  0  0
    0.0000   -3.0000    0.0000 C   0  0  0  0  0  0  0  0  0  0  0  0
    0.1828    1.4888    0.0000 H   0  0  0  0  0  0  0  0  0  0  0  0
   -0.3630   -1.4554    0.0000 H   0  0  0  0  0  0  0  0  0  0  0  0
   -0.3021    2.4028    0.0000 H   0  0  0  0  0  0  0  0  0  0  0  0
   -2.7619   -0.9549    0.0000 H   0  0  0  0  0  0  0  0  0  0  0  0
   -3.0000    1.5000    0.0000 H   0  0  0  0  0  0  0  0  0  0  0  0
   -4.5000    1.5000    0.0000 H   0  0  0  0  0  0  0  0  0  0  0  0
   -7.5000    0.0000    0.0000 H   0  0  0  0  0  0  0  0  0  0  0  0
   -6.0000    1.5000    0.0000 H   0  0  0  0  0  0  0  0  0  0  0  0
   -6.1080   -0.8791    0.0000 H   0  0  0  0  0  0  0  0  0  0  0  0
   -5.3791   -1.6080    0.0000 H   0  0  0  0  0  0  0  0  0  0  0  0
   -3.5159   -1.5000    0.0000 H   0  0  0  0  0  0  0  0  0  0  0  0
   -4.5000   -6.0000    0.0000 H   0  0  0  0  0  0  0  0  0  0  0  0
   -5.2735   -4.6929    0.0000 H   0  0  0  0  0  0  0  0  0  0  0  0
   -3.0112   -4.6828    0.0000 H   0  0  0  0  0  0  0  0  0  0  0  0
   -7.5000   -3.0000    0.0000 H   0  0  0  0  0  0  0  0  0  0  0  0
   -6.2646   -4.0610    0.0000 H   0  0  0  0  0  0  0  0  0  0  0  0
   -6.0000   -4.0935    0.0000 H   0  0  0  0  0  0  0  0  0  0  0  0
   -1.5112   -3.1828    0.0000 H   0  0  0  0  0  0  0  0  0  0  0  0
   -2.8172   -4.4888    0.0000 H   0  0  0  0  0  0  0  0  0  0  0  0
   -2.6370   -1.5446    0.0000 H   0  0  0  0  0  0  0  0  0  0  0  0
    1.5000    1.5000    0.0000 H   0  0  0  0  0  0  0  0  0  0  0  0
    4.5000   -0.0000    0.0000 H   0  0  0  0  0  0  0  0  0  0  0  0
    3.0000    1.5000    0.0000 H   0  0  0  0  0  0  0  0  0  0  0  0
    3.1828   -1.4888    0.0000 H   0  0  0  0  0  0  0  0  0  0  0  0
    2.9888   -1.6828    0.0000 H   0  0  0  0  0  0  0  0  0  0  0  0
    0.0000   -1.5000    0.0000 H   0  0  0  0  0  0  0  0  0  0  0  0
    1.5000   -6.0000    0.0000 H   0  0  0  0  0  0  0  0  0  0  0  0
    0.0000   -4.5000    0.0000 H   0  0  0  0  0  0  0  0  0  0  0  0
    0.0446   -4.8630    0.0000 H   0  0  0  0  0  0  0  0  0  0  0  0
    4.5000   -3.0000    0.0000 H   0  0  0  0  0  0  0  0  0  0  0  0
    2.8172   -4.4888    0.0000 H   0  0  0  0  0  0  0  0  0  0  0  0
    3.1828   -4.4888    0.0000 H   0  0  0  0  0  0  0  0  0  0  0  0
   -1.4888   -3.1828    0.0000 H   0  0  0  0  0  0  0  0  0  0  0  0
   -0.3630   -4.4554    0.0000 H   0  0  0  0  0  0  0  0  0  0  0  0
   -0.3630   -1.5446    0.0000 H   0  0  0  0  0  0  0  0  0  0  0  0
  1  2  1  0
  2  3  1  0
  2  4  2  0
  2  5  1  0
  5  6  1  0
  6  7  1  0
  6  8  1  0
  8  9  1  0
  9 10  1  0
  9 11  1  0
  9 12  1  0
  1 13  1  0
 13 14  1  0
 13 15  1  0
 15 16  1  0
 16 17  1  0
 16 18  1  0
 16 19  1  0
  1 20  1  0
  1 21  1  0
  3 22  1  0
  5 23  1  0
  5 24  1  0
  6 25  1  0
  7 26  1  0
  7 27  1  0
  7 28  1  0
  8 29  1  0
  8 30  1  0
 10 31  1  0
 10 32  1  0
 10 33  1  0
 11 34  1  0
 11 35  1  0
 11 36  1  0
 12 37  1  0
 12 38  1  0
 12 39  1  0
 13 40  1  0
 14 41  1  0
 14 42  1  0
 14 43  1  0
 15 44  1  0
 15 45  1  0
 17 46  1  0
 17 47  1  0
 17 48  1  0
 18 49  1  0
 18 50  1  0
 18 51  1  0
 19 52  1  0
 19 53  1  0
 19 54  1  0
M  END
$$$$
