
     RDKit          2D

 66 69  0  0  0  0  0  0  0  0999 V2000
    1.5000    0.0000    0.0000 C   0  0  0  0  0  0  0  0  0  0  0  0
    0.7500   -1.2990    0.0000 C   0  0  0  0  0  0  0  0  0  0  0  0
    1.5000   -2.5981    0.0000 P   0  0  0  0  0  5  0  0  0  0  0  0
    2.7990   -1.8481    0.0000 O   0  0  0  0  0  0  0  0  0  0  0  0
    2.2500   -3.8971    0.0000 C   0  0  0  0  0  0  0  0  0  0  0  0
    1.5000   -5.1962    0.0000 C   0  0  0  0  0  0  0  0  0  0  0  0
    2.2500   -6.4952    0.0000 C   0  0  0  0  0  0  0  0  0  0  0  0
    1.5000   -7.7942    0.0000 C   0  0  0  0  0  0  0  0  0  0  0  0
    3.7500   -6.4952    0.0000 C   0  0  0  0  0  0  0  0  0  0  0  0
    4.5000   -5.1962    0.0000 C   0  0  0  0  0  0  0  0  0  0  0  0
    6.0000   -5.1962    0.0000 C   0  0  0  0  0  0  0  0  0  0  0  0
    3.7500   -3.8971    0.0000 C   0  0  0  0  0  0  0  0  0  0  0  0
    0.2010   -3.3481    0.0000 C   0  0  0  0  0  0  0  0  0  0  0  0
   -1.0981   -2.5981    0.0000 C   0  0  0  0  0  0  0  0  0  0  0  0
   -2.3971   -3.3481    0.0000 C   0  0  0  0  0  0  0  0  0  0  0  0
   -3.6962   -2.5981    0.0000 C   0  0  0  0  0  0  0  0  0  0  0  0
   -2.3971   -4.8481    0.0000 C   0  0  0  0  0  0  0  0  0  0  0  0
   -1.0981   -5.5981    0.0000 C   0  0  0  0  0  0  0  0  0  0  0  0
   -1.0981   -7.0981    0.0000 C   0  0  0  0  0  0  0  0  0  0  0  0
    0.2010   -4.8481    0.0000 C   0  0  0  0  0  0  0  0  0  0  0  0
   -0.7500   -1.2990    0.0000 N   0  0  0  0  0  0  0  0  0  0  0  0
   -1.5000    0.0000    0.0000 C   0  0  0  0  0  0  0  0  0  0  0  0
   -3.0000    0.0000    0.0000 C   0  0  0  0  0  0  0  0  0  0  0  0
   -3.5861   -1.3808    0.0000 O   0  0  0  0  0  0  0  0  0  0  0  0
   -3.7500    1.2990    0.0000 N   0  0  0  0  0  0  0  0  0  0  0  0
   -3.0000    2.5981    0.0000 C   0  0  0  0  0  0  0  0  0  0  0  0
   -2.2500    3.8971    0.0000 C   0  0  0  0  0  0  0  0  0  0  0  0
   -5.2500    1.2990    0.0000 C   0  0  0  0  0  0  0  0  0  0  0  0
   -6.0000    2.5981    0.0000 C   0  0  0  0  0  0  0  0  0  0  0  0
   -7.5000    2.5981    0.0000 C   0  0  0  0  0  0  0  0  0  0  0  0
   -8.2500    1.2990    0.0000 C   0  0  0  0  0  0  0  0  0  0  0  0
   -7.5000    0.0000    0.0000 C   0  0  0  0  0  0  0  0  0  0  0  0
   -6.0000    0.0000    0.0000 C   0  0  0  0  0  0  0  0  0  0  0  0
   -0.7500    1.2990    0.0000 C   0  0  0  0  0  0  0  0  0  0  0  0
    0.7500    1.2990    0.0000 C   0  0  0  0  0  0  0  0  0  0  0  0
    3.0000    0.0000    0.0000 H   0  0  0  0  0  0  0  0  0  0  0  0
    0.7265   -5.3890    0.0000 H   0  0  0  0  0  0  0  0  0  0  0  0
    0.7500   -9.0933    0.0000 H   0  0  0  0  0  0  0  0  0  0  0  0
    2.7990   -8.5442    0.0000 H   0  0  0  0  0  0  0  0  0  0  0  0
    0.3021   -6.8915    0.0000 H   0  0  0  0  0  0  0  0  0  0  0  0
    4.5000   -7.7942    0.0000 H   0  0  0  0  0  0  0  0  0  0  0  0
    7.5000   -5.1962    0.0000 H   0  0  0  0  0  0  0  0  0  0  0  0
    6.0000   -3.6962    0.0000 H   0  0  0  0  0  0  0  0  0  0  0  0
    6.0000   -6.6962    0.0000 H   0  0  0  0  0  0  0  0  0  0  0  0
    4.5000   -2.5981    0.0000 H   0  0  0  0  0  0  0  0  0  0  0  0
   -1.4610   -1.1427    0.0000 H   0  0  0  0  0  0  0  0  0  0  0  0
   -5.0769   -2.0120    0.0000 H   0  0  0  0  0  0  0  0  0  0  0  0
   -4.4462   -3.8971    0.0000 H   0  0  0  0  0  0  0  0  0  0  0  0
   -2.7934   -1.4001    0.0000 H   0  0  0  0  0  0  0  0  0  0  0  0
   -3.6962   -5.5981    0.0000 H   0  0  0  0  0  0  0  0  0  0  0  0
   -1.0981   -8.5981    0.0000 H   0  0  0  0  0  0  0  0  0  0  0  0
   -2.5981   -7.0981    0.0000 H   0  0  0  0  0  0  0  0  0  0  0  0
    0.3907   -6.9152    0.0000 H   0  0  0  0  0  0  0  0  0  0  0  0
    1.2799   -5.8901    0.0000 H   0  0  0  0  0  0  0  0  0  0  0  0
   -1.6192    2.0120    0.0000 H   0  0  0  0  0  0  0  0  0  0  0  0
   -4.2990    3.3481    0.0000 H   0  0  0  0  0  0  0  0  0  0  0  0
   -1.5000    5.1962    0.0000 H   0  0  0  0  0  0  0  0  0  0  0  0
   -0.8692    3.3111    0.0000 H   0  0  0  0  0  0  0  0  0  0  0  0
   -3.5490    4.6471    0.0000 H   0  0  0  0  0  0  0  0  0  0  0  0
   -5.2500    3.8971    0.0000 H   0  0  0  0  0  0  0  0  0  0  0  0
   -8.2500    3.8971    0.0000 H   0  0  0  0  0  0  0  0  0  0  0  0
   -9.7500    1.2990    0.0000 H   0  0  0  0  0  0  0  0  0  0  0  0
   -8.2500   -1.2990    0.0000 H   0  0  0  0  0  0  0  0  0  0  0  0
   -5.4139   -1.3808    0.0000 H   0  0  0  0  0  0  0  0  0  0  0  0
   -1.1634    2.7410    0.0000 H   0  0  0  0  0  0  0  0  0  0  0  0
    1.5000    2.5981    0.0000 H   0  0  0  0  0  0  0  0  0  0  0  0
  1  2  2  0
  2  3  1  0
  3  4  2  0
  3  5  1  0
  5  6  2  0
  6  7  1  0
  7  8  1  0
  7  9  2  0
  9 10  1  0
 10 11  1  0
 10 12  2  0
  3 13  1  0
 13 14  2  0
 14 15  1  0
 15 16  1  0
 15 17  2  0
 17 18  1  0
 18 19  1  0
 18 20  2  0
  2 21  1  0
 21 22  2  0
 22 23  1  0
 23 24  2  0
 23 25  1  0
 25 26  1  0
 26 27  1  0
 25 28  1  0
 28 29  2  0
 29 30  1  0
 30 31  2  0
 31 32  1  0
 32 33  2  0
 22 34  1  0
 34 35  2  0
 35  1  1  0
 12  5  1  0
 20 13  1  0
 33 28  1  0
  1 36  1  0
  6 37  1  0
  8 38  1  0
  8 39  1  0
  8 40  1  0
  9 41  1  0
 11 42  1  0
 11 43  1  0
 11 44  1  0
 12 45  1  0
 14 46  1  0
 16 47  1  0
 16 48  1  0
 16 49  1  0
 17 50  1  0
 19 51  1  0
 19 52  1  0
 19 53  1  0
 20 54  1  0
 26 55  1  0
 26 56  1  0
 27 57  1  0
 27 58  1  0
 27 59  1  0
 29 60  1  0
 30 61  1  0
 31 62  1  0
 32 63  1  0
 33 64  1  0
 34 65  1  0
 35 66  1  0
M  END
$$$$
