
     RDKit          2D

 85 87  0  0  0  0  0  0  0  0999 V2000
    1.5000    0.0000    0.0000 C   0  0  0  0  0  0  0  0  0  0  0  0
    0.7500   -1.2990    0.0000 C   0  0  0  0  0  0  0  0  0  0  0  0
    1.5000   -2.5981    0.0000 P   0  0  0  0  0  5  0  0  0  0  0  0
    2.2500   -3.8971    0.0000 C   0  0  0  0  0  0  0  0  0  0  0  0
    1.5000   -5.1962    0.0000 C   0  0  0  0  0  0  0  0  0  0  0  0
    2.2500   -6.4952    0.0000 C   0  0  0  0  0  0  0  0  0  0  0  0
    3.7500   -6.4952    0.0000 C   0  0  0  0  0  0  0  0  0  0  0  0
    4.5000   -5.1962    0.0000 C   0  0  0  0  0  0  0  0  0  0  0  0
    3.7500   -3.8971    0.0000 C   0  0  0  0  0  0  0  0  0  0  0  0
    0.2010   -3.3481    0.0000 C   0  0  0  0  0  0  0  0  0  0  0  0
   -1.0981   -4.0981    0.0000 C   0  0  0  0  0  0  0  0  0  0  0  0
   -2.3971   -4.8481    0.0000 C   0  0  0  0  0  0  0  0  0  0  0  0
   -3.6962   -5.5981    0.0000 C   0  0  0  0  0  0  0  0  0  0  0  0
   -4.9952   -6.3481    0.0000 C   0  0  0  0  0  0  0  0  0  0  0  0
   -6.2942   -7.0981    0.0000 C   0  0  0  0  0  0  0  0  0  0  0  0
   -7.5933   -7.8481    0.0000 C   0  0  0  0  0  0  0  0  0  0  0  0
   -8.8923   -8.5981    0.0000 C   0  0  0  0  0  0  0  0  0  0  0  0
    2.7990   -1.8481    0.0000 O   0  0  0  0  0  0  0  0  0  0  0  0
   -0.7500   -1.2990    0.0000 N   0  0  0  0  0  0  0  0  0  0  0  0
   -1.5000    0.0000    0.0000 C   0  0  0  0  0  0  0  0  0  0  0  0
   -3.0000    0.0000    0.0000 P   0  0  0  0  0  5  0  0  0  0  0  0
   -3.0000    1.5000    0.0000 C   0  0  0  0  0  0  0  0  0  0  0  0
   -3.0000    3.0000    0.0000 C   0  0  0  0  0  0  0  0  0  0  0  0
   -3.0000    4.5000    0.0000 C   0  0  0  0  0  0  0  0  0  0  0  0
   -3.0000    6.0000    0.0000 C   0  0  0  0  0  0  0  0  0  0  0  0
   -3.0000    7.5000    0.0000 C   0  0  0  0  0  0  0  0  0  0  0  0
   -3.0000    9.0000    0.0000 C   0  0  0  0  0  0  0  0  0  0  0  0
   -3.0000   10.5000    0.0000 C   0  0  0  0  0  0  0  0  0  0  0  0
   -3.0000   12.0000    0.0000 C   0  0  0  0  0  0  0  0  0  0  0  0
   -4.5000    0.0000    0.0000 C   0  0  0  0  0  0  0  0  0  0  0  0
   -5.2500    1.2990    0.0000 C   0  0  0  0  0  0  0  0  0  0  0  0
   -6.7500    1.2990    0.0000 C   0  0  0  0  0  0  0  0  0  0  0  0
   -7.5000    0.0000    0.0000 C   0  0  0  0  0  0  0  0  0  0  0  0
   -6.7500   -1.2990    0.0000 C   0  0  0  0  0  0  0  0  0  0  0  0
   -5.2500   -1.2990    0.0000 C   0  0  0  0  0  0  0  0  0  0  0  0
   -3.0000   -1.5000    0.0000 O   0  0  0  0  0  0  0  0  0  0  0  0
   -0.7500    1.2990    0.0000 C   0  0  0  0  0  0  0  0  0  0  0  0
    0.7500    1.2990    0.0000 C   0  0  0  0  0  0  0  0  0  0  0  0
    3.0000    0.0000    0.0000 H   0  0  0  0  0  0  0  0  0  0  0  0
    0.4147   -5.3294    0.0000 H   0  0  0  0  0  0  0  0  0  0  0  0
    1.5000   -7.7942    0.0000 H   0  0  0  0  0  0  0  0  0  0  0  0
    4.5000   -7.7942    0.0000 H   0  0  0  0  0  0  0  0  0  0  0  0
    6.0000   -5.1962    0.0000 H   0  0  0  0  0  0  0  0  0  0  0  0
    4.5000   -2.5981    0.0000 H   0  0  0  0  0  0  0  0  0  0  0  0
    0.5023   -4.3992    0.0000 H   0  0  0  0  0  0  0  0  0  0  0  0
   -0.8411   -2.2691    0.0000 H   0  0  0  0  0  0  0  0  0  0  0  0
   -0.5120   -5.4788    0.0000 H   0  0  0  0  0  0  0  0  0  0  0  0
   -1.8481   -2.7990    0.0000 H   0  0  0  0  0  0  0  0  0  0  0  0
   -3.1471   -3.5490    0.0000 H   0  0  0  0  0  0  0  0  0  0  0  0
   -1.6471   -6.1471    0.0000 H   0  0  0  0  0  0  0  0  0  0  0  0
   -2.9462   -6.8971    0.0000 H   0  0  0  0  0  0  0  0  0  0  0  0
   -4.4462   -4.2990    0.0000 H   0  0  0  0  0  0  0  0  0  0  0  0
   -5.7452   -5.0490    0.0000 H   0  0  0  0  0  0  0  0  0  0  0  0
   -4.2452   -7.6471    0.0000 H   0  0  0  0  0  0  0  0  0  0  0  0
   -5.5442   -8.3971    0.0000 H   0  0  0  0  0  0  0  0  0  0  0  0
   -7.0442   -5.7990    0.0000 H   0  0  0  0  0  0  0  0  0  0  0  0
   -8.3433   -6.5490    0.0000 H   0  0  0  0  0  0  0  0  0  0  0  0
   -6.8433   -9.1471    0.0000 H   0  0  0  0  0  0  0  0  0  0  0  0
  -10.1913   -9.3481    0.0000 H   0  0  0  0  0  0  0  0  0  0  0  0
   -8.1423   -9.8971    0.0000 H   0  0  0  0  0  0  0  0  0  0  0  0
   -9.6423   -7.2990    0.0000 H   0  0  0  0  0  0  0  0  0  0  0  0
   -1.9390    1.7646    0.0000 H   0  0  0  0  0  0  0  0  0  0  0  0
   -4.0610    1.7646    0.0000 H   0  0  0  0  0  0  0  0  0  0  0  0
   -1.5112    3.1828    0.0000 H   0  0  0  0  0  0  0  0  0  0  0  0
   -4.4888    3.1828    0.0000 H   0  0  0  0  0  0  0  0  0  0  0  0
   -4.5000    4.5000    0.0000 H   0  0  0  0  0  0  0  0  0  0  0  0
   -1.5000    4.5000    0.0000 H   0  0  0  0  0  0  0  0  0  0  0  0
   -1.5000    6.0000    0.0000 H   0  0  0  0  0  0  0  0  0  0  0  0
   -4.5000    6.0000    0.0000 H   0  0  0  0  0  0  0  0  0  0  0  0
   -4.5000    7.5000    0.0000 H   0  0  0  0  0  0  0  0  0  0  0  0
   -1.5000    7.5000    0.0000 H   0  0  0  0  0  0  0  0  0  0  0  0
   -1.5000    9.0000    0.0000 H   0  0  0  0  0  0  0  0  0  0  0  0
   -4.5000    9.0000    0.0000 H   0  0  0  0  0  0  0  0  0  0  0  0
   -4.5000   10.5000    0.0000 H   0  0  0  0  0  0  0  0  0  0  0  0
   -1.5000   10.5000    0.0000 H   0  0  0  0  0  0  0  0  0  0  0  0
   -3.0000   13.5000    0.0000 H   0  0  0  0  0  0  0  0  0  0  0  0
   -1.5000   12.0000    0.0000 H   0  0  0  0  0  0  0  0  0  0  0  0
   -4.5000   12.0000    0.0000 H   0  0  0  0  0  0  0  0  0  0  0  0
   -4.8228    2.3056    0.0000 H   0  0  0  0  0  0  0  0  0  0  0  0
   -7.5000    2.5981    0.0000 H   0  0  0  0  0  0  0  0  0  0  0  0
   -9.0000    0.0000    0.0000 H   0  0  0  0  0  0  0  0  0  0  0  0
   -7.5000   -2.5981    0.0000 H   0  0  0  0  0  0  0  0  0  0  0  0
   -4.5000   -2.5981    0.0000 H   0  0  0  0  0  0  0  0  0  0  0  0
   -1.1772    2.3056    0.0000 H   0  0  0  0  0  0  0  0  0  0  0  0
    1.5000    2.5981    0.0000 H   0  0  0  0  0  0  0  0  0  0  0  0
  1  2  2  0
  2  3  1  0
  3  4  1  0
  4  5  2  0
  5  6  1  0
  6  7  2  0
  7  8  1  0
  8  9  2  0
  3 10  1  0
 10 11  1  0
 11 12  1  0
 12 13  1  0
 13 14  1  0
 14 15  1  0
 15 16  1  0
 16 17  1  0
  3 18  2  0
  2 19  1  0
 19 20  2  0
 20 21  1  0
 21 22  1  0
 22 23  1  0
 23 24  1  0
 24 25  1  0
 25 26  1  0
 26 27  1  0
 27 28  1  0
 28 29  1  0
 21 30  1  0
 30 31  2  0
 31 32  1  0
 32 33  2  0
 33 34  1  0
 34 35  2  0
 21 36  2  0
 20 37  1  0
 37 38  2  0
 38  1  1  0
  9  4  1  0
 35 30  1  0
  1 39  1  0
  5 40  1  0
  6 41  1  0
  7 42  1  0
  8 43  1  0
  9 44  1  0
 10 45  1  0
 10 46  1  0
 11 47  1  0
 11 48  1  0
 12 49  1  0
 12 50  1  0
 13 51  1  0
 13 52  1  0
 14 53  1  0
 14 54  1  0
 15 55  1  0
 15 56  1  0
 16 57  1  0
 16 58  1  0
 17 59  1  0
 17 60  1  0
 17 61  1  0
 22 62  1  0
 22 63  1  0
 23 64  1  0
 23 65  1  0
 24 66  1  0
 24 67  1  0
 25 68  1  0
 25 69  1  0
 26 70  1  0
 26 71  1  0
 27 72  1  0
 27 73  1  0
 28 74  1  0
 28 75  1  0
 29 76  1  0
 29 77  1  0
 29 78  1  0
 31 79  1  0
 32 80  1  0
 33 81  1  0
 34 82  1  0
 35 83  1  0
 37 84  1  0
 38 85  1  0
M  END
$$$$
