
     RDKit          2D

 39 39  0  0  0  0  0  0  0  0999 V2000
    1.5000    0.0000    0.0000 C   0  0  0  0  0  0  0  0  0  0  0  0
    0.7500   -1.2990    0.0000 C   0  0  0  0  0  0  0  0  0  0  0  0
    1.5000   -2.5981    0.0000 P   0  0  0  0  0  5  0  0  0  0  0  0
    2.2500   -3.8971    0.0000 C   0  0  0  0  0  0  0  0  0  0  0  0
    3.0000   -5.1962    0.0000 C   0  0  0  0  0  0  0  0  0  0  0  0
    3.7500   -6.4952    0.0000 C   0  0  0  0  0  0  0  0  0  0  0  0
    4.5000   -7.7942    0.0000 C   0  0  0  0  0  0  0  0  0  0  0  0
    5.2500   -9.0933    0.0000 C   0  0  0  0  0  0  0  0  0  0  0  0
    6.0000  -10.3923    0.0000 C   0  0  0  0  0  0  0  0  0  0  0  0
    6.7500  -11.6913    0.0000 C   0  0  0  0  0  0  0  0  0  0  0  0
    7.5000  -12.9904    0.0000 C   0  0  0  0  0  0  0  0  0  0  0  0
    0.2010   -3.3481    0.0000 O   0  0  0  0  0  0  0  0  0  0  0  0
   -0.7500   -1.2990    0.0000 N   0  0  0  0  0  0  0  0  0  0  0  0
   -1.5000    0.0000    0.0000 C   0  0  0  0  0  0  0  0  0  0  0  0
   -3.0000    0.0000    0.0000 P   0  0  0  0  0  0  0  0  0  0  0  0
   -3.7500    1.2990    0.0000 O   0  0  0  0  0  0  0  0  0  0  0  0
   -0.7500    1.2990    0.0000 C   0  0  0  0  0  0  0  0  0  0  0  0
    0.7500    1.2990    0.0000 C   0  0  0  0  0  0  0  0  0  0  0  0
    3.0000    0.0000    0.0000 H   0  0  0  0  0  0  0  0  0  0  0  0
    2.7990   -1.8481    0.0000 H   0  0  0  0  0  0  0  0  0  0  0  0
    0.9510   -4.6471    0.0000 H   0  0  0  0  0  0  0  0  0  0  0  0
    3.5490   -3.1471    0.0000 H   0  0  0  0  0  0  0  0  0  0  0  0
    1.7010   -5.9462    0.0000 H   0  0  0  0  0  0  0  0  0  0  0  0
    4.2990   -4.4462    0.0000 H   0  0  0  0  0  0  0  0  0  0  0  0
    5.0490   -5.7452    0.0000 H   0  0  0  0  0  0  0  0  0  0  0  0
    2.4510   -7.2452    0.0000 H   0  0  0  0  0  0  0  0  0  0  0  0
    3.2010   -8.5442    0.0000 H   0  0  0  0  0  0  0  0  0  0  0  0
    5.7990   -7.0442    0.0000 H   0  0  0  0  0  0  0  0  0  0  0  0
    6.5490   -8.3433    0.0000 H   0  0  0  0  0  0  0  0  0  0  0  0
    3.9510   -9.8433    0.0000 H   0  0  0  0  0  0  0  0  0  0  0  0
    4.7010  -11.1423    0.0000 H   0  0  0  0  0  0  0  0  0  0  0  0
    7.2990   -9.6423    0.0000 H   0  0  0  0  0  0  0  0  0  0  0  0
    8.0490  -10.9413    0.0000 H   0  0  0  0  0  0  0  0  0  0  0  0
    5.4510  -12.4413    0.0000 H   0  0  0  0  0  0  0  0  0  0  0  0
    8.2500  -14.2894    0.0000 H   0  0  0  0  0  0  0  0  0  0  0  0
    6.2010  -13.7404    0.0000 H   0  0  0  0  0  0  0  0  0  0  0  0
    8.7990  -12.2404    0.0000 H   0  0  0  0  0  0  0  0  0  0  0  0
   -1.5000    2.5981    0.0000 H   0  0  0  0  0  0  0  0  0  0  0  0
    1.5000    2.5981    0.0000 H   0  0  0  0  0  0  0  0  0  0  0  0
  1  2  2  0
  2  3  1  0
  3  4  1  0
  4  5  1  0
  5  6  1  0
  6  7  1  0
  7  8  1  0
  8  9  1  0
  9 10  1  0
 10 11  1  0
  3 12  2  0
  2 13  1  0
 13 14  2  0
 14 15  1  0
 15 16  2  0
 14 17  1  0
 17 18  2  0
 18  1  1  0
  1 19  1  0
  3 20  1  0
  4 21  1  0
  4 22  1  0
  5 23  1  0
  5 24  1  0
  6 25  1  0
  6 26  1  0
  7 27  1  0
  7 28  1  0
  8 29  1  0
  8 30  1  0
  9 31  1  0
  9 32  1  0
 10 33  1  0
 10 34  1  0
 11 35  1  0
 11 36  1  0
 11 37  1  0
 17 38  1  0
 18 39  1  0
M  END
$$$$
