
     RDKit          2D

 69 73  0  0  0  0  0  0  0  0999 V2000
    1.5000    0.0000    0.0000 C   0  0  0  0  0  0  0  0  0  0  0  0
    0.7500   -1.2990    0.0000 C   0  0  0  0  0  0  0  0  0  0  0  0
    1.5000   -2.5981    0.0000 P   0  0  0  0  0  5  0  0  0  0  0  0
    2.7990   -1.8481    0.0000 O   0  0  0  0  0  0  0  0  0  0  0  0
    2.2500   -3.8971    0.0000 C   0  0  0  0  0  0  0  0  0  0  0  0
    3.7500   -3.8971    0.0000 C   0  0  0  0  0  0  0  0  0  0  0  0
    4.5000   -5.1962    0.0000 C   0  0  0  0  0  0  0  0  0  0  0  0
    3.7500   -6.4952    0.0000 C   0  0  0  0  0  0  0  0  0  0  0  0
    2.2500   -6.4952    0.0000 C   0  0  0  0  0  0  0  0  0  0  0  0
    1.5000   -5.1962    0.0000 C   0  0  0  0  0  0  0  0  0  0  0  0
    0.2010   -3.3481    0.0000 C   0  0  0  0  0  0  0  0  0  0  0  0
   -1.0981   -2.5981    0.0000 C   0  0  0  0  0  0  0  0  0  0  0  0
   -2.3971   -3.3481    0.0000 C   0  0  0  0  0  0  0  0  0  0  0  0
   -3.6962   -2.5981    0.0000 C   0  0  0  0  0  0  0  0  0  0  0  0
   -2.3971   -4.8481    0.0000 C   0  0  0  0  0  0  0  0  0  0  0  0
   -1.0981   -5.5981    0.0000 C   0  0  0  0  0  0  0  0  0  0  0  0
   -1.0981   -7.0981    0.0000 C   0  0  0  0  0  0  0  0  0  0  0  0
    0.2010   -4.8481    0.0000 C   0  0  0  0  0  0  0  0  0  0  0  0
   -0.7500   -1.2990    0.0000 N   0  0  0  0  0  0  0  0  0  0  0  0
   -1.5000    0.0000    0.0000 C   0  0  0  0  0  0  0  0  0  0  0  0
   -3.0000    0.0000    0.0000 P   0  0  0  0  0  5  0  0  0  0  0  0
   -2.8172   -1.4888    0.0000 O   0  0  0  0  0  0  0  0  0  0  0  0
   -4.5000    0.0000    0.0000 C   0  0  0  0  0  0  0  0  0  0  0  0
   -5.2500    1.2990    0.0000 C   0  0  0  0  0  0  0  0  0  0  0  0
   -6.7500    1.2990    0.0000 C   0  0  0  0  0  0  0  0  0  0  0  0
   -7.5000    2.5981    0.0000 C   0  0  0  0  0  0  0  0  0  0  0  0
   -7.5000    0.0000    0.0000 C   0  0  0  0  0  0  0  0  0  0  0  0
   -6.7500   -1.2990    0.0000 C   0  0  0  0  0  0  0  0  0  0  0  0
   -7.5000   -2.5981    0.0000 C   0  0  0  0  0  0  0  0  0  0  0  0
   -5.2500   -1.2990    0.0000 C   0  0  0  0  0  0  0  0  0  0  0  0
   -3.0000    1.5000    0.0000 C   0  0  0  0  0  0  0  0  0  0  0  0
   -1.7010    2.2500    0.0000 C   0  0  0  0  0  0  0  0  0  0  0  0
   -1.7010    3.7500    0.0000 C   0  0  0  0  0  0  0  0  0  0  0  0
   -3.0000    4.5000    0.0000 C   0  0  0  0  0  0  0  0  0  0  0  0
   -4.2990    3.7500    0.0000 C   0  0  0  0  0  0  0  0  0  0  0  0
   -4.2990    2.2500    0.0000 C   0  0  0  0  0  0  0  0  0  0  0  0
   -0.7500    1.2990    0.0000 C   0  0  0  0  0  0  0  0  0  0  0  0
    0.7500    1.2990    0.0000 C   0  0  0  0  0  0  0  0  0  0  0  0
    3.0000    0.0000    0.0000 H   0  0  0  0  0  0  0  0  0  0  0  0
    4.5000   -2.5981    0.0000 H   0  0  0  0  0  0  0  0  0  0  0  0
    6.0000   -5.1962    0.0000 H   0  0  0  0  0  0  0  0  0  0  0  0
    4.5000   -7.7942    0.0000 H   0  0  0  0  0  0  0  0  0  0  0  0
    1.5000   -7.7942    0.0000 H   0  0  0  0  0  0  0  0  0  0  0  0
    0.7265   -5.3890    0.0000 H   0  0  0  0  0  0  0  0  0  0  0  0
   -1.4610   -1.1427    0.0000 H   0  0  0  0  0  0  0  0  0  0  0  0
   -5.1777   -2.3635    0.0000 H   0  0  0  0  0  0  0  0  0  0  0  0
   -4.4462   -3.8971    0.0000 H   0  0  0  0  0  0  0  0  0  0  0  0
   -2.7934   -1.4001    0.0000 H   0  0  0  0  0  0  0  0  0  0  0  0
   -3.6962   -5.5981    0.0000 H   0  0  0  0  0  0  0  0  0  0  0  0
   -1.0981   -8.5981    0.0000 H   0  0  0  0  0  0  0  0  0  0  0  0
   -2.5981   -7.0981    0.0000 H   0  0  0  0  0  0  0  0  0  0  0  0
    0.4019   -7.0981    0.0000 H   0  0  0  0  0  0  0  0  0  0  0  0
    1.2799   -5.8901    0.0000 H   0  0  0  0  0  0  0  0  0  0  0  0
   -4.8366    2.7410    0.0000 H   0  0  0  0  0  0  0  0  0  0  0  0
   -8.2500    3.8971    0.0000 H   0  0  0  0  0  0  0  0  0  0  0  0
   -8.7990    1.8481    0.0000 H   0  0  0  0  0  0  0  0  0  0  0  0
   -6.2010    3.3481    0.0000 H   0  0  0  0  0  0  0  0  0  0  0  0
   -9.0000    0.0000    0.0000 H   0  0  0  0  0  0  0  0  0  0  0  0
   -8.2500   -3.8971    0.0000 H   0  0  0  0  0  0  0  0  0  0  0  0
   -6.2010   -3.3481    0.0000 H   0  0  0  0  0  0  0  0  0  0  0  0
   -8.7990   -1.8481    0.0000 H   0  0  0  0  0  0  0  0  0  0  0  0
   -4.6639   -2.6798    0.0000 H   0  0  0  0  0  0  0  0  0  0  0  0
   -0.2590    1.8366    0.0000 H   0  0  0  0  0  0  0  0  0  0  0  0
   -0.4019    4.5000    0.0000 H   0  0  0  0  0  0  0  0  0  0  0  0
   -3.0000    6.0000    0.0000 H   0  0  0  0  0  0  0  0  0  0  0  0
   -5.5981    4.5000    0.0000 H   0  0  0  0  0  0  0  0  0  0  0  0
   -5.7410    1.8366    0.0000 H   0  0  0  0  0  0  0  0  0  0  0  0
   -1.1634    2.7410    0.0000 H   0  0  0  0  0  0  0  0  0  0  0  0
    1.5000    2.5981    0.0000 H   0  0  0  0  0  0  0  0  0  0  0  0
  1  2  2  0
  2  3  1  0
  3  4  2  0
  3  5  1  0
  5  6  2  0
  6  7  1  0
  7  8  2  0
  8  9  1  0
  9 10  2  0
  3 11  1  0
 11 12  2  0
 12 13  1  0
 13 14  1  0
 13 15  2  0
 15 16  1  0
 16 17  1  0
 16 18  2  0
  2 19  1  0
 19 20  2  0
 20 21  1  0
 21 22  2  0
 21 23  1  0
 23 24  2  0
 24 25  1  0
 25 26  1  0
 25 27  2  0
 27 28  1  0
 28 29  1  0
 28 30  2  0
 21 31  1  0
 31 32  2  0
 32 33  1  0
 33 34  2  0
 34 35  1  0
 35 36  2  0
 20 37  1  0
 37 38  2  0
 38  1  1  0
 10  5  1  0
 18 11  1  0
 30 23  1  0
 36 31  1  0
  1 39  1  0
  6 40  1  0
  7 41  1  0
  8 42  1  0
  9 43  1  0
 10 44  1  0
 12 45  1  0
 14 46  1  0
 14 47  1  0
 14 48  1  0
 15 49  1  0
 17 50  1  0
 17 51  1  0
 17 52  1  0
 18 53  1  0
 24 54  1  0
 26 55  1  0
 26 56  1  0
 26 57  1  0
 27 58  1  0
 29 59  1  0
 29 60  1  0
 29 61  1  0
 30 62  1  0
 32 63  1  0
 33 64  1  0
 34 65  1  0
 35 66  1  0
 36 67  1  0
 37 68  1  0
 38 69  1  0
M  END
$$$$
