
     RDKit          2D

 63 67  0  0  0  0  0  0  0  0999 V2000
    3.7500   -3.8971    0.0000 C   0  0  0  0  0  0  0  0  0  0  0  0
    3.0000   -5.1962    0.0000 C   0  0  0  0  0  0  0  0  0  0  0  0
    1.5000   -5.1962    0.0000 C   0  0  0  0  0  0  0  0  0  0  0  0
    0.7500   -6.4952    0.0000 P   0  0  0  0  0  5  0  0  0  0  0  0
    2.0490   -7.2452    0.0000 O   0  0  0  0  0  0  0  0  0  0  0  0
   -0.0000   -7.7942    0.0000 C   0  0  0  0  0  0  0  0  0  0  0  0
   -1.5000   -7.7942    0.0000 C   0  0  0  0  0  0  0  0  0  0  0  0
   -2.2500   -9.0933    0.0000 C   0  0  0  0  0  0  0  0  0  0  0  0
   -1.5000  -10.3923    0.0000 C   0  0  0  0  0  0  0  0  0  0  0  0
   -0.0000  -10.3923    0.0000 C   0  0  0  0  0  0  0  0  0  0  0  0
    0.7500   -9.0933    0.0000 C   0  0  0  0  0  0  0  0  0  0  0  0
   -0.5490   -5.7452    0.0000 C   0  0  0  0  0  0  0  0  0  0  0  0
   -1.8481   -4.9952    0.0000 C   0  0  0  0  0  0  0  0  0  0  0  0
   -3.1471   -4.2452    0.0000 C   0  0  0  0  0  0  0  0  0  0  0  0
   -4.4462   -3.4952    0.0000 C   0  0  0  0  0  0  0  0  0  0  0  0
    0.7500   -3.8971    0.0000 N   0  0  0  0  0  0  0  0  0  0  0  0
    1.5000   -2.5981    0.0000 C   0  0  0  0  0  0  0  0  0  0  0  0
    0.7500   -1.2990    0.0000 C   0  0  0  0  0  0  0  0  0  0  0  0
    1.5000    0.0000    0.0000 N   0  0  0  0  0  0  0  0  0  0  0  0
    0.7500    1.2990    0.0000 N   0  0  0  0  0  0  0  0  0  0  0  0
   -0.7500    1.2990    0.0000 C   0  0  0  0  0  0  0  0  0  0  0  0
   -1.7537    2.4138    0.0000 C   0  0  0  0  0  0  0  0  0  0  0  0
   -3.1240    1.8037    0.0000 C   0  0  0  0  0  0  0  0  0  0  0  0
   -3.5875    3.2302    0.0000 C   0  0  0  0  0  0  0  0  0  0  0  0
   -4.5912    1.4918    0.0000 C   0  0  0  0  0  0  0  0  0  0  0  0
   -2.9672    0.3119    0.0000 C   0  0  0  0  0  0  0  0  0  0  0  0
   -4.0819   -0.6918    0.0000 C   0  0  0  0  0  0  0  0  0  0  0  0
   -1.5000    0.0000    0.0000 C   0  0  0  0  0  0  0  0  0  0  0  0
   -0.7500   -1.2990    0.0000 N   0  0  0  0  0  0  0  0  0  0  0  0
   -3.9709    1.4266    0.0000 C   0  0  0  0  0  0  0  0  0  0  0  0
   -3.2209    2.7256    0.0000 C   0  0  0  0  0  0  0  0  0  0  0  0
    3.0000   -2.5981    0.0000 C   0  0  0  0  0  0  0  0  0  0  0  0
    5.2500   -3.8971    0.0000 H   0  0  0  0  0  0  0  0  0  0  0  0
    3.7500   -6.4952    0.0000 H   0  0  0  0  0  0  0  0  0  0  0  0
   -2.4028   -6.5963    0.0000 H   0  0  0  0  0  0  0  0  0  0  0  0
   -3.7500   -9.0933    0.0000 H   0  0  0  0  0  0  0  0  0  0  0  0
   -2.2500  -11.6913    0.0000 H   0  0  0  0  0  0  0  0  0  0  0  0
    0.7500  -11.6913    0.0000 H   0  0  0  0  0  0  0  0  0  0  0  0
    2.2500   -9.0933    0.0000 H   0  0  0  0  0  0  0  0  0  0  0  0
   -0.1357   -4.3033    0.0000 H   0  0  0  0  0  0  0  0  0  0  0  0
   -1.5911   -6.8241    0.0000 H   0  0  0  0  0  0  0  0  0  0  0  0
   -1.0981   -3.6962    0.0000 H   0  0  0  0  0  0  0  0  0  0  0  0
   -2.7508   -6.1931    0.0000 H   0  0  0  0  0  0  0  0  0  0  0  0
   -3.8971   -5.5442    0.0000 H   0  0  0  0  0  0  0  0  0  0  0  0
   -2.3971   -2.9462    0.0000 H   0  0  0  0  0  0  0  0  0  0  0  0
   -5.7452   -2.7452    0.0000 H   0  0  0  0  0  0  0  0  0  0  0  0
   -5.1962   -4.7942    0.0000 H   0  0  0  0  0  0  0  0  0  0  0  0
   -3.5434   -2.2973    0.0000 H   0  0  0  0  0  0  0  0  0  0  0  0
   -1.2653    3.8320    0.0000 H   0  0  0  0  0  0  0  0  0  0  0  0
   -4.0511    4.6568    0.0000 H   0  0  0  0  0  0  0  0  0  0  0  0
   -5.0839    3.1257    0.0000 H   0  0  0  0  0  0  0  0  0  0  0  0
   -2.3155    4.0252    0.0000 H   0  0  0  0  0  0  0  0  0  0  0  0
   -6.0585    1.1799    0.0000 H   0  0  0  0  0  0  0  0  0  0  0  0
   -5.1775    0.1111    0.0000 H   0  0  0  0  0  0  0  0  0  0  0  0
   -4.8260    0.0103    0.0000 H   0  0  0  0  0  0  0  0  0  0  0  0
   -5.1967   -1.6955    0.0000 H   0  0  0  0  0  0  0  0  0  0  0  0
   -2.9498   -1.6759    0.0000 H   0  0  0  0  0  0  0  0  0  0  0  0
   -5.4185   -0.0110    0.0000 H   0  0  0  0  0  0  0  0  0  0  0  0
   -4.8312    0.1978    0.0000 H   0  0  0  0  0  0  0  0  0  0  0  0
   -5.2829    2.1538    0.0000 H   0  0  0  0  0  0  0  0  0  0  0  0
   -4.6554    3.1641    0.0000 H   0  0  0  0  0  0  0  0  0  0  0  0
   -2.5870    4.0851    0.0000 H   0  0  0  0  0  0  0  0  0  0  0  0
    3.7500   -1.2990    0.0000 H   0  0  0  0  0  0  0  0  0  0  0  0
  1  2  2  0
  2  3  1  0
  3  4  1  0
  4  5  2  0
  4  6  1  0
  6  7  2  0
  7  8  1  0
  8  9  2  0
  9 10  1  0
 10 11  2  0
  4 12  1  0
 12 13  1  0
 13 14  1  0
 14 15  1  0
  3 16  2  0
 16 17  1  0
 17 18  1  0
 18 19  2  0
 19 20  1  0
 20 21  2  0
 21 22  1  0
 22 23  1  0
 23 24  1  0
 23 25  1  0
 23 26  1  0
 26 27  1  0
 26 28  1  0
 28 29  2  0
 26 30  1  0
 30 31  1  0
 17 32  2  0
 32  1  1  0
 11  6  1  0
 29 18  1  0
 28 21  1  0
 31 22  1  0
  1 33  1  0
  2 34  1  0
  7 35  1  0
  8 36  1  0
  9 37  1  0
 10 38  1  0
 11 39  1  0
 12 40  1  0
 12 41  1  0
 13 42  1  0
 13 43  1  0
 14 44  1  0
 14 45  1  0
 15 46  1  0
 15 47  1  0
 15 48  1  0
 22 49  1  0
 24 50  1  0
 24 51  1  0
 24 52  1  0
 25 53  1  0
 25 54  1  0
 25 55  1  0
 27 56  1  0
 27 57  1  0
 27 58  1  0
 30 59  1  0
 30 60  1  0
 31 61  1  0
 31 62  1  0
 32 63  1  0
M  END
$$$$
