
     RDKit          2D

 61 66  0  0  0  0  0  0  0  0999 V2000
    3.7500   -3.8971    0.0000 C   0  0  0  0  0  0  0  0  0  0  0  0
    3.0000   -5.1962    0.0000 C   0  0  0  0  0  0  0  0  0  0  0  0
    1.5000   -5.1962    0.0000 C   0  0  0  0  0  0  0  0  0  0  0  0
    0.7500   -6.4952    0.0000 P   0  0  0  0  0  5  0  0  0  0  0  0
    2.0490   -7.2452    0.0000 O   0  0  0  0  0  0  0  0  0  0  0  0
   -0.0000   -7.7942    0.0000 C   0  0  0  0  0  0  0  0  0  0  0  0
   -1.5000   -7.7942    0.0000 C   0  0  0  0  0  0  0  0  0  0  0  0
   -2.2500   -9.0933    0.0000 C   0  0  0  0  0  0  0  0  0  0  0  0
   -1.5000  -10.3923    0.0000 C   0  0  0  0  0  0  0  0  0  0  0  0
   -0.0000  -10.3923    0.0000 C   0  0  0  0  0  0  0  0  0  0  0  0
    0.7500   -9.0933    0.0000 C   0  0  0  0  0  0  0  0  0  0  0  0
   -0.5490   -5.7452    0.0000 C   0  0  0  0  0  0  0  0  0  0  0  0
   -0.5490   -4.2452    0.0000 C   0  0  0  0  0  0  0  0  0  0  0  0
   -1.8481   -3.4952    0.0000 C   0  0  0  0  0  0  0  0  0  0  0  0
   -3.1471   -4.2452    0.0000 C   0  0  0  0  0  0  0  0  0  0  0  0
   -3.1471   -5.7452    0.0000 C   0  0  0  0  0  0  0  0  0  0  0  0
   -1.8481   -6.4952    0.0000 C   0  0  0  0  0  0  0  0  0  0  0  0
    0.7500   -3.8971    0.0000 N   0  0  0  0  0  0  0  0  0  0  0  0
    1.5000   -2.5981    0.0000 C   0  0  0  0  0  0  0  0  0  0  0  0
    0.7500   -1.2990    0.0000 C   0  0  0  0  0  0  0  0  0  0  0  0
    1.5000    0.0000    0.0000 N   0  0  0  0  0  0  0  0  0  0  0  0
    0.7500    1.2990    0.0000 N   0  0  0  0  0  0  0  0  0  0  0  0
   -0.7500    1.2990    0.0000 C   0  0  0  0  0  0  0  0  0  0  0  0
   -1.7537    2.4138    0.0000 C   0  0  0  0  0  0  0  0  0  0  0  0
   -3.1240    1.8037    0.0000 C   0  0  0  0  0  0  0  0  0  0  0  0
   -3.5875    3.2302    0.0000 C   0  0  0  0  0  0  0  0  0  0  0  0
   -4.5912    1.4918    0.0000 C   0  0  0  0  0  0  0  0  0  0  0  0
   -2.9672    0.3119    0.0000 C   0  0  0  0  0  0  0  0  0  0  0  0
   -4.0819   -0.6918    0.0000 C   0  0  0  0  0  0  0  0  0  0  0  0
   -1.5000    0.0000    0.0000 C   0  0  0  0  0  0  0  0  0  0  0  0
   -0.7500   -1.2990    0.0000 N   0  0  0  0  0  0  0  0  0  0  0  0
   -3.9709    1.4266    0.0000 C   0  0  0  0  0  0  0  0  0  0  0  0
   -3.2209    2.7256    0.0000 C   0  0  0  0  0  0  0  0  0  0  0  0
    3.0000   -2.5981    0.0000 C   0  0  0  0  0  0  0  0  0  0  0  0
    5.2500   -3.8971    0.0000 H   0  0  0  0  0  0  0  0  0  0  0  0
    3.7500   -6.4952    0.0000 H   0  0  0  0  0  0  0  0  0  0  0  0
   -2.5420   -6.7153    0.0000 H   0  0  0  0  0  0  0  0  0  0  0  0
   -3.7500   -9.0933    0.0000 H   0  0  0  0  0  0  0  0  0  0  0  0
   -2.2500  -11.6913    0.0000 H   0  0  0  0  0  0  0  0  0  0  0  0
    0.7500  -11.6913    0.0000 H   0  0  0  0  0  0  0  0  0  0  0  0
    2.2500   -9.0933    0.0000 H   0  0  0  0  0  0  0  0  0  0  0  0
    0.5299   -3.2031    0.0000 H   0  0  0  0  0  0  0  0  0  0  0  0
   -1.8481   -1.9952    0.0000 H   0  0  0  0  0  0  0  0  0  0  0  0
   -4.4462   -3.4952    0.0000 H   0  0  0  0  0  0  0  0  0  0  0  0
   -4.4462   -6.4952    0.0000 H   0  0  0  0  0  0  0  0  0  0  0  0
   -2.2110   -7.9506    0.0000 H   0  0  0  0  0  0  0  0  0  0  0  0
   -1.2653    3.8320    0.0000 H   0  0  0  0  0  0  0  0  0  0  0  0
   -4.0511    4.6568    0.0000 H   0  0  0  0  0  0  0  0  0  0  0  0
   -5.0839    3.1257    0.0000 H   0  0  0  0  0  0  0  0  0  0  0  0
   -2.3155    4.0252    0.0000 H   0  0  0  0  0  0  0  0  0  0  0  0
   -6.0585    1.1799    0.0000 H   0  0  0  0  0  0  0  0  0  0  0  0
   -5.1775    0.1111    0.0000 H   0  0  0  0  0  0  0  0  0  0  0  0
   -4.8260    0.0103    0.0000 H   0  0  0  0  0  0  0  0  0  0  0  0
   -5.1967   -1.6955    0.0000 H   0  0  0  0  0  0  0  0  0  0  0  0
   -3.0782   -1.8065    0.0000 H   0  0  0  0  0  0  0  0  0  0  0  0
   -5.4185   -0.0110    0.0000 H   0  0  0  0  0  0  0  0  0  0  0  0
   -4.8312    0.1978    0.0000 H   0  0  0  0  0  0  0  0  0  0  0  0
   -5.2829    2.1538    0.0000 H   0  0  0  0  0  0  0  0  0  0  0  0
   -4.6554    3.1641    0.0000 H   0  0  0  0  0  0  0  0  0  0  0  0
   -2.5870    4.0851    0.0000 H   0  0  0  0  0  0  0  0  0  0  0  0
    3.7500   -1.2990    0.0000 H   0  0  0  0  0  0  0  0  0  0  0  0
  1  2  2  0
  2  3  1  0
  3  4  1  0
  4  5  2  0
  4  6  1  0
  6  7  2  0
  7  8  1  0
  8  9  2  0
  9 10  1  0
 10 11  2  0
  4 12  1  0
 12 13  2  0
 13 14  1  0
 14 15  2  0
 15 16  1  0
 16 17  2  0
  3 18  2  0
 18 19  1  0
 19 20  1  0
 20 21  2  0
 21 22  1  0
 22 23  2  0
 23 24  1  0
 24 25  1  0
 25 26  1  0
 25 27  1  0
 25 28  1  0
 28 29  1  0
 28 30  1  0
 30 31  2  0
 28 32  1  0
 32 33  1  0
 19 34  2  0
 34  1  1  0
 11  6  1  0
 17 12  1  0
 31 20  1  0
 30 23  1  0
 33 24  1  0
  1 35  1  0
  2 36  1  0
  7 37  1  0
  8 38  1  0
  9 39  1  0
 10 40  1  0
 11 41  1  0
 13 42  1  0
 14 43  1  0
 15 44  1  0
 16 45  1  0
 17 46  1  0
 24 47  1  0
 26 48  1  0
 26 49  1  0
 26 50  1  0
 27 51  1  0
 27 52  1  0
 27 53  1  0
 29 54  1  0
 29 55  1  0
 29 56  1  0
 32 57  1  0
 32 58  1  0
 33 59  1  0
 33 60  1  0
 34 61  1  0
M  END
$$$$
