
     RDKit          2D

 38 39  0  0  0  0  0  0  0  0999 V2000
    1.5000   -0.0000    0.0000 C   0  0  0  0  0  0  0  0  0  0  0  0
    0.7500   -1.2990    0.0000 C   0  0  0  0  0  0  0  0  0  0  0  0
   -0.7500   -1.2990    0.0000 C   0  0  0  0  0  0  0  0  0  0  0  0
   -1.5000   -2.5981    0.0000 C   0  0  0  0  0  0  0  0  0  0  0  0
   -1.5000    0.0000    0.0000 C   0  0  0  0  0  0  0  0  0  0  0  0
   -0.7500    1.2990    0.0000 C   0  0  0  0  0  0  0  0  0  0  0  0
   -1.5000    2.5981    0.0000 P   0  0  0  0  0  5  0  0  0  0  0  0
   -0.5297    3.3293    0.0000 S   0  0  0  0  0  0  0  0  0  0  0  0
   -2.7990    1.8481    0.0000 S   0  0  0  0  0  0  0  0  0  0  0  0
   -2.2500    3.8971    0.0000 C   0  0  0  0  0  0  0  0  0  0  0  0
   -1.5000    5.1962    0.0000 C   0  0  0  0  0  0  0  0  0  0  0  0
   -2.2500    6.4952    0.0000 C   0  0  0  0  0  0  0  0  0  0  0  0
   -1.5000    7.7942    0.0000 C   0  0  0  0  0  0  0  0  0  0  0  0
   -3.7500    6.4952    0.0000 C   0  0  0  0  0  0  0  0  0  0  0  0
   -4.5000    5.1962    0.0000 C   0  0  0  0  0  0  0  0  0  0  0  0
   -3.7500    3.8971    0.0000 C   0  0  0  0  0  0  0  0  0  0  0  0
   -4.5000    2.5981    0.0000 C   0  0  0  0  0  0  0  0  0  0  0  0
    0.7500    1.2990    0.0000 C   0  0  0  0  0  0  0  0  0  0  0  0
    1.5000    2.5981    0.0000 C   0  0  0  0  0  0  0  0  0  0  0  0
    3.0000    0.0000    0.0000 H   0  0  0  0  0  0  0  0  0  0  0  0
    1.5000   -2.5981    0.0000 H   0  0  0  0  0  0  0  0  0  0  0  0
   -2.2500   -3.8971    0.0000 H   0  0  0  0  0  0  0  0  0  0  0  0
   -2.7990   -1.8481    0.0000 H   0  0  0  0  0  0  0  0  0  0  0  0
   -0.2010   -3.3481    0.0000 H   0  0  0  0  0  0  0  0  0  0  0  0
   -2.5853   -0.1333    0.0000 H   0  0  0  0  0  0  0  0  0  0  0  0
   -2.9323    0.7627    0.0000 H   0  0  0  0  0  0  0  0  0  0  0  0
    0.0000    5.1962    0.0000 H   0  0  0  0  0  0  0  0  0  0  0  0
   -0.7500    9.0933    0.0000 H   0  0  0  0  0  0  0  0  0  0  0  0
   -2.7990    8.5442    0.0000 H   0  0  0  0  0  0  0  0  0  0  0  0
   -0.2010    7.0442    0.0000 H   0  0  0  0  0  0  0  0  0  0  0  0
   -4.5000    7.7942    0.0000 H   0  0  0  0  0  0  0  0  0  0  0  0
   -6.0000    5.1962    0.0000 H   0  0  0  0  0  0  0  0  0  0  0  0
   -5.2500    1.2990    0.0000 H   0  0  0  0  0  0  0  0  0  0  0  0
   -5.7990    3.3481    0.0000 H   0  0  0  0  0  0  0  0  0  0  0  0
   -3.7134    1.8384    0.0000 H   0  0  0  0  0  0  0  0  0  0  0  0
    2.2500    3.8971    0.0000 H   0  0  0  0  0  0  0  0  0  0  0  0
    2.7990    1.8481    0.0000 H   0  0  0  0  0  0  0  0  0  0  0  0
    0.5297    3.3293    0.0000 H   0  0  0  0  0  0  0  0  0  0  0  0
  1  2  2  0
  2  3  1  0
  3  4  1  0
  3  5  2  0
  5  6  1  0
  6  7  1  0
  7  8  2  0
  7  9  1  0
  7 10  1  0
 10 11  2  0
 11 12  1  0
 12 13  1  0
 12 14  2  0
 14 15  1  0
 15 16  2  0
 16 17  1  0
  6 18  2  0
 18 19  1  0
 18  1  1  0
 16 10  1  0
  1 20  1  0
  2 21  1  0
  4 22  1  0
  4 23  1  0
  4 24  1  0
  5 25  1  0
  9 26  1  0
 11 27  1  0
 13 28  1  0
 13 29  1  0
 13 30  1  0
 14 31  1  0
 15 32  1  0
 17 33  1  0
 17 34  1  0
 17 35  1  0
 19 36  1  0
 19 37  1  0
 19 38  1  0
M  END
$$$$
