
     RDKit          2D

 41 40  0  0  0  0  0  0  0  0999 V2000
    0.0000    0.0000    0.0000 C   0  0  0  0  0  0  0  0  0  0  0  0
    1.5000    0.0000    0.0000 C   0  0  0  0  0  0  0  0  0  0  0  0
    3.0000    0.0000    0.0000 C   0  0  0  0  0  0  0  0  0  0  0  0
    1.5000   -1.5000    0.0000 C   0  0  0  0  0  0  0  0  0  0  0  0
    1.5000   -3.0000    0.0000 P   0  0  0  0  0  5  0  0  0  0  0  0
    3.0000   -3.0000    0.0000 S   0  0  0  0  0  0  0  0  0  0  0  0
    1.5000   -4.5000    0.0000 C   0  0  0  0  0  0  0  0  0  0  0  0
    1.5000   -6.0000    0.0000 C   0  0  0  0  0  0  0  0  0  0  0  0
    1.5000   -7.5000    0.0000 C   0  0  0  0  0  0  0  0  0  0  0  0
    3.0000   -6.0000    0.0000 C   0  0  0  0  0  0  0  0  0  0  0  0
    0.0000   -3.0000    0.0000 C   0  0  0  0  0  0  0  0  0  0  0  0
   -1.5000   -3.0000    0.0000 C   0  0  0  0  0  0  0  0  0  0  0  0
   -3.0000   -3.0000    0.0000 C   0  0  0  0  0  0  0  0  0  0  0  0
   -1.5000   -4.5000    0.0000 C   0  0  0  0  0  0  0  0  0  0  0  0
   -1.5000    0.0000    0.0000 H   0  0  0  0  0  0  0  0  0  0  0  0
    0.0000    1.5000    0.0000 H   0  0  0  0  0  0  0  0  0  0  0  0
   -0.1080   -0.8791    0.0000 H   0  0  0  0  0  0  0  0  0  0  0  0
    1.5000    1.5000    0.0000 H   0  0  0  0  0  0  0  0  0  0  0  0
    4.5000   -0.0000    0.0000 H   0  0  0  0  0  0  0  0  0  0  0  0
    3.0000    1.5000    0.0000 H   0  0  0  0  0  0  0  0  0  0  0  0
    3.1080   -0.8791    0.0000 H   0  0  0  0  0  0  0  0  0  0  0  0
    2.3791   -1.6080    0.0000 H   0  0  0  0  0  0  0  0  0  0  0  0
    0.6209   -1.6080    0.0000 H   0  0  0  0  0  0  0  0  0  0  0  0
    2.3791   -4.6080    0.0000 H   0  0  0  0  0  0  0  0  0  0  0  0
    2.3791   -4.3920    0.0000 H   0  0  0  0  0  0  0  0  0  0  0  0
    0.0000   -6.0000    0.0000 H   0  0  0  0  0  0  0  0  0  0  0  0
    1.5000   -9.0000    0.0000 H   0  0  0  0  0  0  0  0  0  0  0  0
    0.0112   -7.3172    0.0000 H   0  0  0  0  0  0  0  0  0  0  0  0
    0.0112   -7.6828    0.0000 H   0  0  0  0  0  0  0  0  0  0  0  0
    4.5000   -6.0000    0.0000 H   0  0  0  0  0  0  0  0  0  0  0  0
    2.8172   -7.4888    0.0000 H   0  0  0  0  0  0  0  0  0  0  0  0
    3.1828   -7.4888    0.0000 H   0  0  0  0  0  0  0  0  0  0  0  0
   -0.1828   -4.4888    0.0000 H   0  0  0  0  0  0  0  0  0  0  0  0
    0.1828   -4.4888    0.0000 H   0  0  0  0  0  0  0  0  0  0  0  0
   -1.5000   -1.5000    0.0000 H   0  0  0  0  0  0  0  0  0  0  0  0
   -4.5000   -3.0000    0.0000 H   0  0  0  0  0  0  0  0  0  0  0  0
   -2.8172   -1.5112    0.0000 H   0  0  0  0  0  0  0  0  0  0  0  0
   -3.1828   -1.5112    0.0000 H   0  0  0  0  0  0  0  0  0  0  0  0
   -1.5000   -6.0000    0.0000 H   0  0  0  0  0  0  0  0  0  0  0  0
   -2.9888   -4.3172    0.0000 H   0  0  0  0  0  0  0  0  0  0  0  0
   -2.9888   -4.6828    0.0000 H   0  0  0  0  0  0  0  0  0  0  0  0
  1  2  1  0
  2  3  1  0
  2  4  1  0
  4  5  1  0
  5  6  2  0
  5  7  1  0
  7  8  1  0
  8  9  1  0
  8 10  1  0
  5 11  1  0
 11 12  1  0
 12 13  1  0
 12 14  1  0
  1 15  1  0
  1 16  1  0
  1 17  1  0
  2 18  1  0
  3 19  1  0
  3 20  1  0
  3 21  1  0
  4 22  1  0
  4 23  1  0
  7 24  1  0
  7 25  1  0
  8 26  1  0
  9 27  1  0
  9 28  1  0
  9 29  1  0
 10 30  1  0
 10 31  1  0
 10 32  1  0
 11 33  1  0
 11 34  1  0
 12 35  1  0
 13 36  1  0
 13 37  1  0
 13 38  1  0
 14 39  1  0
 14 40  1  0
 14 41  1  0
M  END
$$$$
