
     RDKit          2D

 77 76  0  0  0  0  0  0  0  0999 V2000
    0.0000    0.0000    0.0000 C   0  0  0  0  0  0  0  0  0  0  0  0
    1.5000    0.0000    0.0000 C   0  0  0  0  0  0  0  0  0  0  0  0
    3.0000    0.0000    0.0000 C   0  0  0  0  0  0  0  0  0  0  0  0
    4.5000    0.0000    0.0000 C   0  0  0  0  0  0  0  0  0  0  0  0
    6.0000    0.0000    0.0000 C   0  0  0  0  0  0  0  0  0  0  0  0
    7.5000    0.0000    0.0000 C   0  0  0  0  0  0  0  0  0  0  0  0
    9.0000    0.0000    0.0000 C   0  0  0  0  0  0  0  0  0  0  0  0
   10.5000    0.0000    0.0000 C   0  0  0  0  0  0  0  0  0  0  0  0
   12.0000    0.0000    0.0000 P   0  0  0  0  0  5  0  0  0  0  0  0
   13.5000    0.0000    0.0000 C   0  0  0  0  0  0  0  0  0  0  0  0
   15.0000    0.0000    0.0000 C   0  0  0  0  0  0  0  0  0  0  0  0
   16.5000    0.0000    0.0000 C   0  0  0  0  0  0  0  0  0  0  0  0
   18.0000    0.0000    0.0000 C   0  0  0  0  0  0  0  0  0  0  0  0
   19.5000    0.0000    0.0000 C   0  0  0  0  0  0  0  0  0  0  0  0
   18.0000   -1.5000    0.0000 C   0  0  0  0  0  0  0  0  0  0  0  0
   18.0000    1.5000    0.0000 C   0  0  0  0  0  0  0  0  0  0  0  0
   15.0000   -1.5000    0.0000 C   0  0  0  0  0  0  0  0  0  0  0  0
   12.0000    1.5000    0.0000 C   0  0  0  0  0  0  0  0  0  0  0  0
   12.0000    3.0000    0.0000 C   0  0  0  0  0  0  0  0  0  0  0  0
   12.0000    4.5000    0.0000 C   0  0  0  0  0  0  0  0  0  0  0  0
   12.0000    6.0000    0.0000 C   0  0  0  0  0  0  0  0  0  0  0  0
   12.0000    7.5000    0.0000 C   0  0  0  0  0  0  0  0  0  0  0  0
   10.5000    6.0000    0.0000 C   0  0  0  0  0  0  0  0  0  0  0  0
   13.5000    6.0000    0.0000 C   0  0  0  0  0  0  0  0  0  0  0  0
   13.5000    3.0000    0.0000 C   0  0  0  0  0  0  0  0  0  0  0  0
   12.0000   -1.5000    0.0000 O   0  0  0  0  0  0  0  0  0  0  0  0
   -1.5000    0.0000    0.0000 H   0  0  0  0  0  0  0  0  0  0  0  0
    0.0000    1.5000    0.0000 H   0  0  0  0  0  0  0  0  0  0  0  0
   -0.0000   -1.5000    0.0000 H   0  0  0  0  0  0  0  0  0  0  0  0
    1.5000   -1.5000    0.0000 H   0  0  0  0  0  0  0  0  0  0  0  0
    1.5000    1.5000    0.0000 H   0  0  0  0  0  0  0  0  0  0  0  0
    3.0000    1.5000    0.0000 H   0  0  0  0  0  0  0  0  0  0  0  0
    3.0000   -1.5000    0.0000 H   0  0  0  0  0  0  0  0  0  0  0  0
    4.5000   -1.5000    0.0000 H   0  0  0  0  0  0  0  0  0  0  0  0
    4.5000    1.5000    0.0000 H   0  0  0  0  0  0  0  0  0  0  0  0
    6.0000    1.5000    0.0000 H   0  0  0  0  0  0  0  0  0  0  0  0
    6.0000   -1.5000    0.0000 H   0  0  0  0  0  0  0  0  0  0  0  0
    7.5000   -1.5000    0.0000 H   0  0  0  0  0  0  0  0  0  0  0  0
    7.5000    1.5000    0.0000 H   0  0  0  0  0  0  0  0  0  0  0  0
    9.0000    1.5000    0.0000 H   0  0  0  0  0  0  0  0  0  0  0  0
    9.0000   -1.5000    0.0000 H   0  0  0  0  0  0  0  0  0  0  0  0
   10.5000   -1.5000    0.0000 H   0  0  0  0  0  0  0  0  0  0  0  0
   10.3172    1.4888    0.0000 H   0  0  0  0  0  0  0  0  0  0  0  0
   13.6828    1.4888    0.0000 H   0  0  0  0  0  0  0  0  0  0  0  0
   13.3172   -1.4888    0.0000 H   0  0  0  0  0  0  0  0  0  0  0  0
   15.0000    1.5000    0.0000 H   0  0  0  0  0  0  0  0  0  0  0  0
   16.3172    1.4888    0.0000 H   0  0  0  0  0  0  0  0  0  0  0  0
   16.6828   -1.4888    0.0000 H   0  0  0  0  0  0  0  0  0  0  0  0
   21.0000    0.0000    0.0000 H   0  0  0  0  0  0  0  0  0  0  0  0
   19.6929    0.7735    0.0000 H   0  0  0  0  0  0  0  0  0  0  0  0
   19.5000    0.7972    0.0000 H   0  0  0  0  0  0  0  0  0  0  0  0
   18.0000   -3.0000    0.0000 H   0  0  0  0  0  0  0  0  0  0  0  0
   19.4888   -1.6828    0.0000 H   0  0  0  0  0  0  0  0  0  0  0  0
   19.4888   -1.3172    0.0000 H   0  0  0  0  0  0  0  0  0  0  0  0
   18.0000    3.0000    0.0000 H   0  0  0  0  0  0  0  0  0  0  0  0
   19.4554    1.8630    0.0000 H   0  0  0  0  0  0  0  0  0  0  0  0
   16.5112    1.6828    0.0000 H   0  0  0  0  0  0  0  0  0  0  0  0
   15.0000   -3.0000    0.0000 H   0  0  0  0  0  0  0  0  0  0  0  0
   16.4888   -1.6828    0.0000 H   0  0  0  0  0  0  0  0  0  0  0  0
   13.5112   -1.6828    0.0000 H   0  0  0  0  0  0  0  0  0  0  0  0
   10.5112    1.6828    0.0000 H   0  0  0  0  0  0  0  0  0  0  0  0
   13.4888    1.6828    0.0000 H   0  0  0  0  0  0  0  0  0  0  0  0
   10.5000    3.0000    0.0000 H   0  0  0  0  0  0  0  0  0  0  0  0
   10.5112    4.6828    0.0000 H   0  0  0  0  0  0  0  0  0  0  0  0
   10.5112    4.3172    0.0000 H   0  0  0  0  0  0  0  0  0  0  0  0
   12.0000    9.0000    0.0000 H   0  0  0  0  0  0  0  0  0  0  0  0
   13.5000    7.5000    0.0000 H   0  0  0  0  0  0  0  0  0  0  0  0
   13.4554    7.8630    0.0000 H   0  0  0  0  0  0  0  0  0  0  0  0
    9.0000    6.0000    0.0000 H   0  0  0  0  0  0  0  0  0  0  0  0
   10.6828    7.4888    0.0000 H   0  0  0  0  0  0  0  0  0  0  0  0
   10.3172    7.4888    0.0000 H   0  0  0  0  0  0  0  0  0  0  0  0
   15.0000    6.0000    0.0000 H   0  0  0  0  0  0  0  0  0  0  0  0
   13.8630    7.4554    0.0000 H   0  0  0  0  0  0  0  0  0  0  0  0
   13.1370    4.5446    0.0000 H   0  0  0  0  0  0  0  0  0  0  0  0
   15.0000    3.0000    0.0000 H   0  0  0  0  0  0  0  0  0  0  0  0
   13.5000    4.5000    0.0000 H   0  0  0  0  0  0  0  0  0  0  0  0
   13.1370    4.4554    0.0000 H   0  0  0  0  0  0  0  0  0  0  0  0
  1  2  1  0
  2  3  1  0
  3  4  1  0
  4  5  1  0
  5  6  1  0
  6  7  1  0
  7  8  1  0
  8  9  1  0
  9 10  1  0
 10 11  1  0
 11 12  1  0
 12 13  1  0
 13 14  1  0
 13 15  1  0
 13 16  1  0
 11 17  1  0
  9 18  1  0
 18 19  1  0
 19 20  1  0
 20 21  1  0
 21 22  1  0
 21 23  1  0
 21 24  1  0
 19 25  1  0
  9 26  2  0
  1 27  1  0
  1 28  1  0
  1 29  1  0
  2 30  1  0
  2 31  1  0
  3 32  1  0
  3 33  1  0
  4 34  1  0
  4 35  1  0
  5 36  1  0
  5 37  1  0
  6 38  1  0
  6 39  1  0
  7 40  1  0
  7 41  1  0
  8 42  1  0
  8 43  1  0
 10 44  1  0
 10 45  1  0
 11 46  1  0
 12 47  1  0
 12 48  1  0
 14 49  1  0
 14 50  1  0
 14 51  1  0
 15 52  1  0
 15 53  1  0
 15 54  1  0
 16 55  1  0
 16 56  1  0
 16 57  1  0
 17 58  1  0
 17 59  1  0
 17 60  1  0
 18 61  1  0
 18 62  1  0
 19 63  1  0
 20 64  1  0
 20 65  1  0
 22 66  1  0
 22 67  1  0
 22 68  1  0
 23 69  1  0
 23 70  1  0
 23 71  1  0
 24 72  1  0
 24 73  1  0
 24 74  1  0
 25 75  1  0
 25 76  1  0
 25 77  1  0
M  END
$$$$
