
     RDKit          2D

 36 35  0  0  0  0  0  0  0  0999 V2000
    2.5981    1.5000    0.0000 N   0  0  0  0  0  0  0  0  0  0  0  0
    1.2990    0.7500    0.0000 C   0  0  0  0  0  0  0  0  0  0  0  0
    0.0000    0.0000    0.0000 C   0  0  0  0  0  0  0  0  0  0  0  0
   -1.2990    0.7500    0.0000 O   0  0  0  0  0  0  0  0  0  0  0  0
   -0.0000   -1.5000    0.0000 O   0  0  0  0  0  0  0  0  0  0  0  0
    2.5981    3.0000    0.0000 C   0  0  0  0  0  0  0  0  0  0  0  0
    2.5981    4.5000    0.0000 C   0  0  0  0  0  0  0  0  0  0  0  0
    1.2990    5.2500    0.0000 O   0  0  0  0  0  0  0  0  0  0  0  0
    3.8971    5.2500    0.0000 O   0  0  0  0  0  0  0  0  0  0  0  0
    3.8971    0.7500    0.0000 C   0  0  0  0  0  0  0  0  0  0  0  0
    5.1962    0.0000    0.0000 C   0  0  0  0  0  0  0  0  0  0  0  0
    6.4952   -0.7500    0.0000 N   0  0  0  0  0  0  0  0  0  0  0  0
    7.7942    0.0000    0.0000 C   0  0  0  0  0  0  0  0  0  0  0  0
    9.0933    0.7500    0.0000 C   0  0  0  0  0  0  0  0  0  0  0  0
    9.0933    2.2500    0.0000 O   0  0  0  0  0  0  0  0  0  0  0  0
   10.3923    0.0000    0.0000 O   0  0  0  0  0  0  0  0  0  0  0  0
    6.4952   -2.2500    0.0000 C   0  0  0  0  0  0  0  0  0  0  0  0
    6.4952   -3.7500    0.0000 C   0  0  0  0  0  0  0  0  0  0  0  0
    5.1962   -4.5000    0.0000 O   0  0  0  0  0  0  0  0  0  0  0  0
    7.7942   -4.5000    0.0000 O   0  0  0  0  0  0  0  0  0  0  0  0
    2.0490   -0.5490    0.0000 H   0  0  0  0  0  0  0  0  0  0  0  0
    0.5490    2.0490    0.0000 H   0  0  0  0  0  0  0  0  0  0  0  0
   -1.2990   -2.2500    0.0000 H   0  0  0  0  0  0  0  0  0  0  0  0
    1.0981    3.0000    0.0000 H   0  0  0  0  0  0  0  0  0  0  0  0
    4.0981    3.0000    0.0000 H   0  0  0  0  0  0  0  0  0  0  0  0
    3.8971    6.7500    0.0000 H   0  0  0  0  0  0  0  0  0  0  0  0
    3.1471   -0.5490    0.0000 H   0  0  0  0  0  0  0  0  0  0  0  0
    4.6471    2.0490    0.0000 H   0  0  0  0  0  0  0  0  0  0  0  0
    4.4462   -1.2990    0.0000 H   0  0  0  0  0  0  0  0  0  0  0  0
    5.9462    1.2990    0.0000 H   0  0  0  0  0  0  0  0  0  0  0  0
    7.0442    1.2990    0.0000 H   0  0  0  0  0  0  0  0  0  0  0  0
    8.5442   -1.2990    0.0000 H   0  0  0  0  0  0  0  0  0  0  0  0
   11.6913    0.7500    0.0000 H   0  0  0  0  0  0  0  0  0  0  0  0
    4.9952   -2.2500    0.0000 H   0  0  0  0  0  0  0  0  0  0  0  0
    7.9952   -2.2500    0.0000 H   0  0  0  0  0  0  0  0  0  0  0  0
    7.7942   -6.0000    0.0000 H   0  0  0  0  0  0  0  0  0  0  0  0
  1  2  1  0
  2  3  1  0
  3  4  2  0
  3  5  1  0
  1  6  1  0
  6  7  1  0
  7  8  2  0
  7  9  1  0
  1 10  1  0
 10 11  1  0
 11 12  1  0
 12 13  1  0
 13 14  1  0
 14 15  2  0
 14 16  1  0
 12 17  1  0
 17 18  1  0
 18 19  2  0
 18 20  1  0
  2 21  1  0
  2 22  1  0
  5 23  1  0
  6 24  1  0
  6 25  1  0
  9 26  1  0
 10 27  1  0
 10 28  1  0
 11 29  1  0
 11 30  1  0
 13 31  1  0
 13 32  1  0
 16 33  1  0
 17 34  1  0
 17 35  1  0
 20 36  1  0
M  END
$$$$
