
     RDKit          2D

 56 55  0  0  0  0  0  0  0  0999 V2000
   -3.0000   -2.5981    0.0000 O   0  0  0  0  0  0  0  0  0  0  0  0
   -2.2500   -1.2990    0.0000 P   0  0  0  0  0  5  0  0  0  0  0  0
   -3.5490   -0.5490    0.0000 S   0  0  0  0  0  0  0  0  0  0  0  0
   -0.9510   -2.0490    0.0000 S   0  0  0  0  0  0  0  0  0  0  0  0
   -1.5000    0.0000    0.0000 O   0  0  0  0  0  0  0  0  0  0  0  0
    0.0000    0.0000    0.0000 C   0  0  0  0  0  0  0  0  0  0  0  0
    1.5000    0.0000    0.0000 C   0  0  0  0  0  0  0  0  0  0  0  0
    3.0000    0.0000    0.0000 C   0  0  0  0  0  0  0  0  0  0  0  0
    4.5000   -0.0000    0.0000 C   0  0  0  0  0  0  0  0  0  0  0  0
    1.5000   -1.5000    0.0000 C   0  0  0  0  0  0  0  0  0  0  0  0
    1.5000   -3.0000    0.0000 C   0  0  0  0  0  0  0  0  0  0  0  0
    1.5000   -4.5000    0.0000 C   0  0  0  0  0  0  0  0  0  0  0  0
    1.5000   -6.0000    0.0000 C   0  0  0  0  0  0  0  0  0  0  0  0
   -2.2500   -3.8971    0.0000 C   0  0  0  0  0  0  0  0  0  0  0  0
   -1.5000   -5.1962    0.0000 C   0  0  0  0  0  0  0  0  0  0  0  0
   -0.7500   -6.4952    0.0000 C   0  0  0  0  0  0  0  0  0  0  0  0
    0.0000   -7.7942    0.0000 C   0  0  0  0  0  0  0  0  0  0  0  0
   -2.7990   -5.9462    0.0000 C   0  0  0  0  0  0  0  0  0  0  0  0
   -4.0981   -6.6962    0.0000 C   0  0  0  0  0  0  0  0  0  0  0  0
   -5.3971   -7.4462    0.0000 C   0  0  0  0  0  0  0  0  0  0  0  0
   -6.6962   -8.1962    0.0000 C   0  0  0  0  0  0  0  0  0  0  0  0
   -4.8481   -1.2990    0.0000 H   0  0  0  0  0  0  0  0  0  0  0  0
    0.0000    1.5000    0.0000 H   0  0  0  0  0  0  0  0  0  0  0  0
   -0.1080   -0.8791    0.0000 H   0  0  0  0  0  0  0  0  0  0  0  0
    1.5000    1.5000    0.0000 H   0  0  0  0  0  0  0  0  0  0  0  0
    3.0000    1.5000    0.0000 H   0  0  0  0  0  0  0  0  0  0  0  0
    3.1080   -0.8791    0.0000 H   0  0  0  0  0  0  0  0  0  0  0  0
    6.0000   -0.0000    0.0000 H   0  0  0  0  0  0  0  0  0  0  0  0
    4.5000   -1.5000    0.0000 H   0  0  0  0  0  0  0  0  0  0  0  0
    4.5000    1.5000    0.0000 H   0  0  0  0  0  0  0  0  0  0  0  0
    2.3791   -1.6080    0.0000 H   0  0  0  0  0  0  0  0  0  0  0  0
    0.6209   -1.6080    0.0000 H   0  0  0  0  0  0  0  0  0  0  0  0
    0.0000   -3.0000    0.0000 H   0  0  0  0  0  0  0  0  0  0  0  0
    3.0000   -3.0000    0.0000 H   0  0  0  0  0  0  0  0  0  0  0  0
    3.0000   -4.5000    0.0000 H   0  0  0  0  0  0  0  0  0  0  0  0
    0.4147   -4.3667    0.0000 H   0  0  0  0  0  0  0  0  0  0  0  0
    1.6828   -7.4888    0.0000 H   0  0  0  0  0  0  0  0  0  0  0  0
    0.2941   -5.8519    0.0000 H   0  0  0  0  0  0  0  0  0  0  0  0
    3.0000   -6.0000    0.0000 H   0  0  0  0  0  0  0  0  0  0  0  0
   -0.9510   -3.1471    0.0000 H   0  0  0  0  0  0  0  0  0  0  0  0
   -3.6308   -4.4832    0.0000 H   0  0  0  0  0  0  0  0  0  0  0  0
   -0.6267   -4.5380    0.0000 H   0  0  0  0  0  0  0  0  0  0  0  0
   -1.9479   -7.3979    0.0000 H   0  0  0  0  0  0  0  0  0  0  0  0
    0.2203   -5.7640    0.0000 H   0  0  0  0  0  0  0  0  0  0  0  0
    0.7500   -9.0933    0.0000 H   0  0  0  0  0  0  0  0  0  0  0  0
   -1.2990   -8.5442    0.0000 H   0  0  0  0  0  0  0  0  0  0  0  0
    1.3808   -7.2082    0.0000 H   0  0  0  0  0  0  0  0  0  0  0  0
   -2.2130   -7.3269    0.0000 H   0  0  0  0  0  0  0  0  0  0  0  0
   -3.7018   -4.7482    0.0000 H   0  0  0  0  0  0  0  0  0  0  0  0
   -4.8481   -5.3971    0.0000 H   0  0  0  0  0  0  0  0  0  0  0  0
   -3.3481   -7.9952    0.0000 H   0  0  0  0  0  0  0  0  0  0  0  0
   -4.6471   -8.7452    0.0000 H   0  0  0  0  0  0  0  0  0  0  0  0
   -6.1471   -6.1471    0.0000 H   0  0  0  0  0  0  0  0  0  0  0  0
   -7.9952   -8.9462    0.0000 H   0  0  0  0  0  0  0  0  0  0  0  0
   -7.4462   -6.8971    0.0000 H   0  0  0  0  0  0  0  0  0  0  0  0
   -5.9462   -9.4952    0.0000 H   0  0  0  0  0  0  0  0  0  0  0  0
  1  2  1  0
  2  3  1  0
  2  4  2  0
  2  5  1  0
  5  6  1  0
  6  7  1  0
  7  8  1  0
  8  9  1  0
  7 10  1  0
 10 11  1  0
 11 12  1  0
 12 13  1  0
  1 14  1  0
 14 15  1  0
 15 16  1  0
 16 17  1  0
 15 18  1  0
 18 19  1  0
 19 20  1  0
 20 21  1  0
  3 22  1  0
  6 23  1  0
  6 24  1  0
  7 25  1  0
  8 26  1  0
  8 27  1  0
  9 28  1  0
  9 29  1  0
  9 30  1  0
 10 31  1  0
 10 32  1  0
 11 33  1  0
 11 34  1  0
 12 35  1  0
 12 36  1  0
 13 37  1  0
 13 38  1  0
 13 39  1  0
 14 40  1  0
 14 41  1  0
 15 42  1  0
 16 43  1  0
 16 44  1  0
 17 45  1  0
 17 46  1  0
 17 47  1  0
 18 48  1  0
 18 49  1  0
 19 50  1  0
 19 51  1  0
 20 52  1  0
 20 53  1  0
 21 54  1  0
 21 55  1  0
 21 56  1  0
M  END
$$$$
