
     RDKit          2D

 35 37  0  0  0  0  0  0  0  0999 V2000
    1.5000   -2.5981    0.0000 P   0  0  0  0  0  5  0  0  0  0  0  0
    0.7500   -1.2990    0.0000 C   0  0  0  0  0  0  0  0  0  0  0  0
    1.5000    0.0000    0.0000 C   0  0  0  0  0  0  0  0  0  0  0  0
    0.7500    1.2990    0.0000 C   0  0  0  0  0  0  0  0  0  0  0  0
   -0.7500    1.2990    0.0000 C   0  0  0  0  0  0  0  0  0  0  0  0
   -1.5000   -0.0000    0.0000 C   0  0  0  0  0  0  0  0  0  0  0  0
   -0.7500   -1.2990    0.0000 C   0  0  0  0  0  0  0  0  0  0  0  0
    2.2500   -3.8971    0.0000 C   0  0  0  0  0  0  0  0  0  0  0  0
    1.5000   -5.1962    0.0000 C   0  0  0  0  0  0  0  0  0  0  0  0
    2.2500   -6.4952    0.0000 C   0  0  0  0  0  0  0  0  0  0  0  0
    3.7500   -6.4952    0.0000 C   0  0  0  0  0  0  0  0  0  0  0  0
    4.5000   -5.1962    0.0000 C   0  0  0  0  0  0  0  0  0  0  0  0
    3.7500   -3.8971    0.0000 C   0  0  0  0  0  0  0  0  0  0  0  0
    0.2010   -3.3481    0.0000 C   0  0  0  0  0  0  0  0  0  0  0  0
    0.2010   -4.8481    0.0000 C   0  0  0  0  0  0  0  0  0  0  0  0
   -1.0981   -5.5981    0.0000 C   0  0  0  0  0  0  0  0  0  0  0  0
   -2.3971   -4.8481    0.0000 C   0  0  0  0  0  0  0  0  0  0  0  0
   -2.3971   -3.3481    0.0000 C   0  0  0  0  0  0  0  0  0  0  0  0
   -1.0981   -2.5981    0.0000 C   0  0  0  0  0  0  0  0  0  0  0  0
    2.7990   -1.8481    0.0000 O   0  0  0  0  0  0  0  0  0  0  0  0
    3.0000    0.0000    0.0000 H   0  0  0  0  0  0  0  0  0  0  0  0
    1.5000    2.5981    0.0000 H   0  0  0  0  0  0  0  0  0  0  0  0
   -1.5000    2.5981    0.0000 H   0  0  0  0  0  0  0  0  0  0  0  0
   -3.0000    0.0000    0.0000 H   0  0  0  0  0  0  0  0  0  0  0  0
   -1.3038   -1.8724    0.0000 H   0  0  0  0  0  0  0  0  0  0  0  0
    0.0446   -5.5591    0.0000 H   0  0  0  0  0  0  0  0  0  0  0  0
    1.5000   -7.7942    0.0000 H   0  0  0  0  0  0  0  0  0  0  0  0
    4.5000   -7.7942    0.0000 H   0  0  0  0  0  0  0  0  0  0  0  0
    6.0000   -5.1962    0.0000 H   0  0  0  0  0  0  0  0  0  0  0  0
    4.5000   -2.5981    0.0000 H   0  0  0  0  0  0  0  0  0  0  0  0
    1.2799   -5.8901    0.0000 H   0  0  0  0  0  0  0  0  0  0  0  0
   -1.0981   -7.0981    0.0000 H   0  0  0  0  0  0  0  0  0  0  0  0
   -3.6962   -5.5981    0.0000 H   0  0  0  0  0  0  0  0  0  0  0  0
   -3.6962   -2.5981    0.0000 H   0  0  0  0  0  0  0  0  0  0  0  0
   -1.4610   -1.1427    0.0000 H   0  0  0  0  0  0  0  0  0  0  0  0
  1  2  1  0
  2  3  2  0
  3  4  1  0
  4  5  2  0
  5  6  1  0
  6  7  2  0
  1  8  1  0
  8  9  2  0
  9 10  1  0
 10 11  2  0
 11 12  1  0
 12 13  2  0
  1 14  1  0
 14 15  2  0
 15 16  1  0
 16 17  2  0
 17 18  1  0
 18 19  2  0
  1 20  2  0
  7  2  1  0
 13  8  1  0
 19 14  1  0
  3 21  1  0
  4 22  1  0
  5 23  1  0
  6 24  1  0
  7 25  1  0
  9 26  1  0
 10 27  1  0
 11 28  1  0
 12 29  1  0
 13 30  1  0
 15 31  1  0
 16 32  1  0
 17 33  1  0
 18 34  1  0
 19 35  1  0
M  END
$$$$
