
     RDKit          2D

 41 40  0  0  0  0  0  0  0  0999 V2000
   -1.5000    0.0000    0.0000 P   0  0  0  0  0  5  0  0  0  0  0  0
    0.0000    0.0000    0.0000 C   0  0  0  0  0  0  0  0  0  0  0  0
    1.5000    0.0000    0.0000 C   0  0  0  0  0  0  0  0  0  0  0  0
    3.0000    0.0000    0.0000 C   0  0  0  0  0  0  0  0  0  0  0  0
    4.5000   -0.0000    0.0000 C   0  0  0  0  0  0  0  0  0  0  0  0
   -3.0000    0.0000    0.0000 C   0  0  0  0  0  0  0  0  0  0  0  0
   -4.5000    0.0000    0.0000 C   0  0  0  0  0  0  0  0  0  0  0  0
   -6.0000    0.0000    0.0000 C   0  0  0  0  0  0  0  0  0  0  0  0
   -7.5000    0.0000    0.0000 C   0  0  0  0  0  0  0  0  0  0  0  0
   -1.5000   -1.5000    0.0000 C   0  0  0  0  0  0  0  0  0  0  0  0
   -1.5000   -3.0000    0.0000 C   0  0  0  0  0  0  0  0  0  0  0  0
   -1.5000   -4.5000    0.0000 C   0  0  0  0  0  0  0  0  0  0  0  0
   -1.5000   -6.0000    0.0000 C   0  0  0  0  0  0  0  0  0  0  0  0
   -1.5000    1.5000    0.0000 O   0  0  0  0  0  0  0  0  0  0  0  0
    0.0000    1.5000    0.0000 H   0  0  0  0  0  0  0  0  0  0  0  0
    0.1080   -0.8791    0.0000 H   0  0  0  0  0  0  0  0  0  0  0  0
    1.5000   -1.5000    0.0000 H   0  0  0  0  0  0  0  0  0  0  0  0
    1.5000    1.5000    0.0000 H   0  0  0  0  0  0  0  0  0  0  0  0
    3.0000    1.5000    0.0000 H   0  0  0  0  0  0  0  0  0  0  0  0
    3.0000   -1.5000    0.0000 H   0  0  0  0  0  0  0  0  0  0  0  0
    6.0000   -0.0000    0.0000 H   0  0  0  0  0  0  0  0  0  0  0  0
    4.5000   -1.5000    0.0000 H   0  0  0  0  0  0  0  0  0  0  0  0
    4.5000    1.5000    0.0000 H   0  0  0  0  0  0  0  0  0  0  0  0
   -3.1080   -0.8791    0.0000 H   0  0  0  0  0  0  0  0  0  0  0  0
   -3.0000    1.5000    0.0000 H   0  0  0  0  0  0  0  0  0  0  0  0
   -4.5000    1.5000    0.0000 H   0  0  0  0  0  0  0  0  0  0  0  0
   -4.5000   -1.5000    0.0000 H   0  0  0  0  0  0  0  0  0  0  0  0
   -6.0000   -1.5000    0.0000 H   0  0  0  0  0  0  0  0  0  0  0  0
   -6.0000    1.5000    0.0000 H   0  0  0  0  0  0  0  0  0  0  0  0
   -9.0000    0.0000    0.0000 H   0  0  0  0  0  0  0  0  0  0  0  0
   -7.5000    1.5000    0.0000 H   0  0  0  0  0  0  0  0  0  0  0  0
   -7.5000   -1.5000    0.0000 H   0  0  0  0  0  0  0  0  0  0  0  0
   -0.6209   -1.6080    0.0000 H   0  0  0  0  0  0  0  0  0  0  0  0
   -2.3791   -1.6080    0.0000 H   0  0  0  0  0  0  0  0  0  0  0  0
   -3.0000   -3.0000    0.0000 H   0  0  0  0  0  0  0  0  0  0  0  0
    0.0000   -3.0000    0.0000 H   0  0  0  0  0  0  0  0  0  0  0  0
   -0.0000   -4.5000    0.0000 H   0  0  0  0  0  0  0  0  0  0  0  0
   -3.0000   -4.5000    0.0000 H   0  0  0  0  0  0  0  0  0  0  0  0
   -1.5000   -7.5000    0.0000 H   0  0  0  0  0  0  0  0  0  0  0  0
   -3.0000   -6.0000    0.0000 H   0  0  0  0  0  0  0  0  0  0  0  0
   -0.0000   -6.0000    0.0000 H   0  0  0  0  0  0  0  0  0  0  0  0
  1  2  1  0
  2  3  1  0
  3  4  1  0
  4  5  1  0
  1  6  1  0
  6  7  1  0
  7  8  1  0
  8  9  1  0
  1 10  1  0
 10 11  1  0
 11 12  1  0
 12 13  1  0
  1 14  2  0
  2 15  1  0
  2 16  1  0
  3 17  1  0
  3 18  1  0
  4 19  1  0
  4 20  1  0
  5 21  1  0
  5 22  1  0
  5 23  1  0
  6 24  1  0
  6 25  1  0
  7 26  1  0
  7 27  1  0
  8 28  1  0
  8 29  1  0
  9 30  1  0
  9 31  1  0
  9 32  1  0
 10 33  1  0
 10 34  1  0
 11 35  1  0
 11 36  1  0
 12 37  1  0
 12 38  1  0
 13 39  1  0
 13 40  1  0
 13 41  1  0
M  END
$$$$
