
     RDKit          2D

 77 76  0  0  0  0  0  0  0  0999 V2000
   -1.5000    0.0000    0.0000 P   0  0  0  0  0  5  0  0  0  0  0  0
    0.0000    0.0000    0.0000 C   0  0  0  0  0  0  0  0  0  0  0  0
    1.5000    0.0000    0.0000 C   0  0  0  0  0  0  0  0  0  0  0  0
    3.0000    0.0000    0.0000 C   0  0  0  0  0  0  0  0  0  0  0  0
    4.5000   -0.0000    0.0000 C   0  0  0  0  0  0  0  0  0  0  0  0
    6.0000   -0.0000    0.0000 C   0  0  0  0  0  0  0  0  0  0  0  0
    7.5000    0.0000    0.0000 C   0  0  0  0  0  0  0  0  0  0  0  0
    9.0000    0.0000    0.0000 C   0  0  0  0  0  0  0  0  0  0  0  0
   10.5000    0.0000    0.0000 C   0  0  0  0  0  0  0  0  0  0  0  0
   -3.0000    0.0000    0.0000 C   0  0  0  0  0  0  0  0  0  0  0  0
   -4.5000    0.0000    0.0000 C   0  0  0  0  0  0  0  0  0  0  0  0
   -6.0000    0.0000    0.0000 C   0  0  0  0  0  0  0  0  0  0  0  0
   -7.5000    0.0000    0.0000 C   0  0  0  0  0  0  0  0  0  0  0  0
   -9.0000    0.0000    0.0000 C   0  0  0  0  0  0  0  0  0  0  0  0
  -10.5000    0.0000    0.0000 C   0  0  0  0  0  0  0  0  0  0  0  0
  -12.0000    0.0000    0.0000 C   0  0  0  0  0  0  0  0  0  0  0  0
  -13.5000    0.0000    0.0000 C   0  0  0  0  0  0  0  0  0  0  0  0
   -1.5000   -1.5000    0.0000 C   0  0  0  0  0  0  0  0  0  0  0  0
   -1.5000   -3.0000    0.0000 C   0  0  0  0  0  0  0  0  0  0  0  0
   -1.5000   -4.5000    0.0000 C   0  0  0  0  0  0  0  0  0  0  0  0
   -1.5000   -6.0000    0.0000 C   0  0  0  0  0  0  0  0  0  0  0  0
   -1.5000   -7.5000    0.0000 C   0  0  0  0  0  0  0  0  0  0  0  0
   -1.5000   -9.0000    0.0000 C   0  0  0  0  0  0  0  0  0  0  0  0
   -1.5000  -10.5000    0.0000 C   0  0  0  0  0  0  0  0  0  0  0  0
   -1.5000  -12.0000    0.0000 C   0  0  0  0  0  0  0  0  0  0  0  0
   -1.5000    1.5000    0.0000 O   0  0  0  0  0  0  0  0  0  0  0  0
    0.0000    1.5000    0.0000 H   0  0  0  0  0  0  0  0  0  0  0  0
    0.1080   -0.8791    0.0000 H   0  0  0  0  0  0  0  0  0  0  0  0
    1.5000   -1.5000    0.0000 H   0  0  0  0  0  0  0  0  0  0  0  0
    1.5000    1.5000    0.0000 H   0  0  0  0  0  0  0  0  0  0  0  0
    3.0000    1.5000    0.0000 H   0  0  0  0  0  0  0  0  0  0  0  0
    3.0000   -1.5000    0.0000 H   0  0  0  0  0  0  0  0  0  0  0  0
    4.5000   -1.5000    0.0000 H   0  0  0  0  0  0  0  0  0  0  0  0
    4.5000    1.5000    0.0000 H   0  0  0  0  0  0  0  0  0  0  0  0
    6.0000    1.5000    0.0000 H   0  0  0  0  0  0  0  0  0  0  0  0
    6.0000   -1.5000    0.0000 H   0  0  0  0  0  0  0  0  0  0  0  0
    7.5000   -1.5000    0.0000 H   0  0  0  0  0  0  0  0  0  0  0  0
    7.5000    1.5000    0.0000 H   0  0  0  0  0  0  0  0  0  0  0  0
    9.0000    1.5000    0.0000 H   0  0  0  0  0  0  0  0  0  0  0  0
    9.0000   -1.5000    0.0000 H   0  0  0  0  0  0  0  0  0  0  0  0
   12.0000    0.0000    0.0000 H   0  0  0  0  0  0  0  0  0  0  0  0
   10.5000   -1.5000    0.0000 H   0  0  0  0  0  0  0  0  0  0  0  0
   10.5000    1.5000    0.0000 H   0  0  0  0  0  0  0  0  0  0  0  0
   -3.1080   -0.8791    0.0000 H   0  0  0  0  0  0  0  0  0  0  0  0
   -3.0000    1.5000    0.0000 H   0  0  0  0  0  0  0  0  0  0  0  0
   -4.5000    1.5000    0.0000 H   0  0  0  0  0  0  0  0  0  0  0  0
   -4.5000   -1.5000    0.0000 H   0  0  0  0  0  0  0  0  0  0  0  0
   -6.0000   -1.5000    0.0000 H   0  0  0  0  0  0  0  0  0  0  0  0
   -6.0000    1.5000    0.0000 H   0  0  0  0  0  0  0  0  0  0  0  0
   -7.5000    1.5000    0.0000 H   0  0  0  0  0  0  0  0  0  0  0  0
   -7.5000   -1.5000    0.0000 H   0  0  0  0  0  0  0  0  0  0  0  0
   -9.0000   -1.5000    0.0000 H   0  0  0  0  0  0  0  0  0  0  0  0
   -9.0000    1.5000    0.0000 H   0  0  0  0  0  0  0  0  0  0  0  0
  -10.5000    1.5000    0.0000 H   0  0  0  0  0  0  0  0  0  0  0  0
  -10.5000   -1.5000    0.0000 H   0  0  0  0  0  0  0  0  0  0  0  0
  -12.0000   -1.5000    0.0000 H   0  0  0  0  0  0  0  0  0  0  0  0
  -12.0000    1.5000    0.0000 H   0  0  0  0  0  0  0  0  0  0  0  0
  -15.0000    0.0000    0.0000 H   0  0  0  0  0  0  0  0  0  0  0  0
  -13.5000    1.5000    0.0000 H   0  0  0  0  0  0  0  0  0  0  0  0
  -13.5000   -1.5000    0.0000 H   0  0  0  0  0  0  0  0  0  0  0  0
   -0.6209   -1.6080    0.0000 H   0  0  0  0  0  0  0  0  0  0  0  0
   -2.3791   -1.6080    0.0000 H   0  0  0  0  0  0  0  0  0  0  0  0
   -3.0000   -3.0000    0.0000 H   0  0  0  0  0  0  0  0  0  0  0  0
    0.0000   -3.0000    0.0000 H   0  0  0  0  0  0  0  0  0  0  0  0
   -0.0000   -4.5000    0.0000 H   0  0  0  0  0  0  0  0  0  0  0  0
   -3.0000   -4.5000    0.0000 H   0  0  0  0  0  0  0  0  0  0  0  0
   -3.0000   -6.0000    0.0000 H   0  0  0  0  0  0  0  0  0  0  0  0
   -0.0000   -6.0000    0.0000 H   0  0  0  0  0  0  0  0  0  0  0  0
   -0.0000   -7.5000    0.0000 H   0  0  0  0  0  0  0  0  0  0  0  0
   -3.0000   -7.5000    0.0000 H   0  0  0  0  0  0  0  0  0  0  0  0
   -3.0000   -9.0000    0.0000 H   0  0  0  0  0  0  0  0  0  0  0  0
    0.0000   -9.0000    0.0000 H   0  0  0  0  0  0  0  0  0  0  0  0
    0.0000  -10.5000    0.0000 H   0  0  0  0  0  0  0  0  0  0  0  0
   -3.0000  -10.5000    0.0000 H   0  0  0  0  0  0  0  0  0  0  0  0
   -1.5000  -13.5000    0.0000 H   0  0  0  0  0  0  0  0  0  0  0  0
   -3.0000  -12.0000    0.0000 H   0  0  0  0  0  0  0  0  0  0  0  0
   -0.0000  -12.0000    0.0000 H   0  0  0  0  0  0  0  0  0  0  0  0
  1  2  1  0
  2  3  1  0
  3  4  1  0
  4  5  1  0
  5  6  1  0
  6  7  1  0
  7  8  1  0
  8  9  1  0
  1 10  1  0
 10 11  1  0
 11 12  1  0
 12 13  1  0
 13 14  1  0
 14 15  1  0
 15 16  1  0
 16 17  1  0
  1 18  1  0
 18 19  1  0
 19 20  1  0
 20 21  1  0
 21 22  1  0
 22 23  1  0
 23 24  1  0
 24 25  1  0
  1 26  2  0
  2 27  1  0
  2 28  1  0
  3 29  1  0
  3 30  1  0
  4 31  1  0
  4 32  1  0
  5 33  1  0
  5 34  1  0
  6 35  1  0
  6 36  1  0
  7 37  1  0
  7 38  1  0
  8 39  1  0
  8 40  1  0
  9 41  1  0
  9 42  1  0
  9 43  1  0
 10 44  1  0
 10 45  1  0
 11 46  1  0
 11 47  1  0
 12 48  1  0
 12 49  1  0
 13 50  1  0
 13 51  1  0
 14 52  1  0
 14 53  1  0
 15 54  1  0
 15 55  1  0
 16 56  1  0
 16 57  1  0
 17 58  1  0
 17 59  1  0
 17 60  1  0
 18 61  1  0
 18 62  1  0
 19 63  1  0
 19 64  1  0
 20 65  1  0
 20 66  1  0
 21 67  1  0
 21 68  1  0
 22 69  1  0
 22 70  1  0
 23 71  1  0
 23 72  1  0
 24 73  1  0
 24 74  1  0
 25 75  1  0
 25 76  1  0
 25 77  1  0
M  END
$$$$
