
     RDKit          2D

 44 43  0  0  0  0  0  0  0  0999 V2000
   -2.2500   -1.2990    0.0000 P   0  0  0  0  0  5  0  0  0  0  0  0
   -1.5000    0.0000    0.0000 O   0  0  0  0  0  0  0  0  0  0  0  0
    0.0000    0.0000    0.0000 C   0  0  0  0  0  0  0  0  0  0  0  0
    1.5000    0.0000    0.0000 C   0  0  0  0  0  0  0  0  0  0  0  0
    3.0000    0.0000    0.0000 C   0  0  0  0  0  0  0  0  0  0  0  0
    4.5000    0.0000    0.0000 C   0  0  0  0  0  0  0  0  0  0  0  0
   -0.9510   -2.0490    0.0000 O   0  0  0  0  0  0  0  0  0  0  0  0
   -0.9510   -3.5490    0.0000 C   0  0  0  0  0  0  0  0  0  0  0  0
   -0.9510   -5.0490    0.0000 C   0  0  0  0  0  0  0  0  0  0  0  0
   -0.9510   -6.5490    0.0000 C   0  0  0  0  0  0  0  0  0  0  0  0
   -0.9510   -8.0490    0.0000 C   0  0  0  0  0  0  0  0  0  0  0  0
   -3.5490   -0.5490    0.0000 O   0  0  0  0  0  0  0  0  0  0  0  0
   -4.8481   -1.2990    0.0000 C   0  0  0  0  0  0  0  0  0  0  0  0
   -6.1471   -2.0490    0.0000 C   0  0  0  0  0  0  0  0  0  0  0  0
   -7.4462   -2.7990    0.0000 C   0  0  0  0  0  0  0  0  0  0  0  0
   -8.7452   -3.5490    0.0000 C   0  0  0  0  0  0  0  0  0  0  0  0
   -3.0000   -2.5981    0.0000 O   0  0  0  0  0  0  0  0  0  0  0  0
    0.0000    1.5000    0.0000 H   0  0  0  0  0  0  0  0  0  0  0  0
   -0.0000   -1.5000    0.0000 H   0  0  0  0  0  0  0  0  0  0  0  0
    1.5000   -1.5000    0.0000 H   0  0  0  0  0  0  0  0  0  0  0  0
    1.5000    1.5000    0.0000 H   0  0  0  0  0  0  0  0  0  0  0  0
    3.0000    1.5000    0.0000 H   0  0  0  0  0  0  0  0  0  0  0  0
    3.0000   -1.5000    0.0000 H   0  0  0  0  0  0  0  0  0  0  0  0
    6.0000    0.0000    0.0000 H   0  0  0  0  0  0  0  0  0  0  0  0
    4.5000   -1.5000    0.0000 H   0  0  0  0  0  0  0  0  0  0  0  0
    4.5000    1.5000    0.0000 H   0  0  0  0  0  0  0  0  0  0  0  0
   -2.4510   -3.5490    0.0000 H   0  0  0  0  0  0  0  0  0  0  0  0
    0.5490   -3.5490    0.0000 H   0  0  0  0  0  0  0  0  0  0  0  0
   -2.4510   -5.0490    0.0000 H   0  0  0  0  0  0  0  0  0  0  0  0
    0.5490   -5.0490    0.0000 H   0  0  0  0  0  0  0  0  0  0  0  0
    0.5490   -6.5490    0.0000 H   0  0  0  0  0  0  0  0  0  0  0  0
   -2.4510   -6.5490    0.0000 H   0  0  0  0  0  0  0  0  0  0  0  0
   -0.9510   -9.5490    0.0000 H   0  0  0  0  0  0  0  0  0  0  0  0
   -2.4510   -8.0490    0.0000 H   0  0  0  0  0  0  0  0  0  0  0  0
    0.5490   -8.0490    0.0000 H   0  0  0  0  0  0  0  0  0  0  0  0
   -4.0981   -2.5981    0.0000 H   0  0  0  0  0  0  0  0  0  0  0  0
   -5.5981    0.0000    0.0000 H   0  0  0  0  0  0  0  0  0  0  0  0
   -5.3971   -3.3481    0.0000 H   0  0  0  0  0  0  0  0  0  0  0  0
   -6.8971   -0.7500    0.0000 H   0  0  0  0  0  0  0  0  0  0  0  0
   -8.1962   -1.5000    0.0000 H   0  0  0  0  0  0  0  0  0  0  0  0
   -6.6962   -4.0981    0.0000 H   0  0  0  0  0  0  0  0  0  0  0  0
  -10.0442   -4.2990    0.0000 H   0  0  0  0  0  0  0  0  0  0  0  0
   -7.9952   -4.8481    0.0000 H   0  0  0  0  0  0  0  0  0  0  0  0
   -9.4952   -2.2500    0.0000 H   0  0  0  0  0  0  0  0  0  0  0  0
  1  2  1  0
  2  3  1  0
  3  4  1  0
  4  5  1  0
  5  6  1  0
  1  7  1  0
  7  8  1  0
  8  9  1  0
  9 10  1  0
 10 11  1  0
  1 12  1  0
 12 13  1  0
 13 14  1  0
 14 15  1  0
 15 16  1  0
  1 17  2  0
  3 18  1  0
  3 19  1  0
  4 20  1  0
  4 21  1  0
  5 22  1  0
  5 23  1  0
  6 24  1  0
  6 25  1  0
  6 26  1  0
  8 27  1  0
  8 28  1  0
  9 29  1  0
  9 30  1  0
 10 31  1  0
 10 32  1  0
 11 33  1  0
 11 34  1  0
 11 35  1  0
 13 36  1  0
 13 37  1  0
 14 38  1  0
 14 39  1  0
 15 40  1  0
 15 41  1  0
 16 42  1  0
 16 43  1  0
 16 44  1  0
M  END
$$$$
