
     RDKit          2D

 62 61  0  0  0  0  0  0  0  0999 V2000
   -2.2500   -1.2990    0.0000 P   0  0  0  0  0  5  0  0  0  0  0  0
   -1.5000    0.0000    0.0000 O   0  0  0  0  0  0  0  0  0  0  0  0
    0.0000    0.0000    0.0000 C   0  0  0  0  0  0  0  0  0  0  0  0
    1.5000    0.0000    0.0000 C   0  0  0  0  0  0  0  0  0  0  0  0
    3.0000    0.0000    0.0000 C   0  0  0  0  0  0  0  0  0  0  0  0
    4.5000    0.0000    0.0000 C   0  0  0  0  0  0  0  0  0  0  0  0
    6.0000    0.0000    0.0000 C   0  0  0  0  0  0  0  0  0  0  0  0
    7.5000    0.0000    0.0000 C   0  0  0  0  0  0  0  0  0  0  0  0
   -0.9510   -2.0490    0.0000 O   0  0  0  0  0  0  0  0  0  0  0  0
   -0.9510   -3.5490    0.0000 C   0  0  0  0  0  0  0  0  0  0  0  0
   -0.9510   -5.0490    0.0000 C   0  0  0  0  0  0  0  0  0  0  0  0
   -0.9510   -6.5490    0.0000 C   0  0  0  0  0  0  0  0  0  0  0  0
   -0.9510   -8.0490    0.0000 C   0  0  0  0  0  0  0  0  0  0  0  0
   -0.9510   -9.5490    0.0000 C   0  0  0  0  0  0  0  0  0  0  0  0
   -0.9510  -11.0490    0.0000 C   0  0  0  0  0  0  0  0  0  0  0  0
   -3.5490   -0.5490    0.0000 O   0  0  0  0  0  0  0  0  0  0  0  0
   -4.8481   -1.2990    0.0000 C   0  0  0  0  0  0  0  0  0  0  0  0
   -6.1471   -2.0490    0.0000 C   0  0  0  0  0  0  0  0  0  0  0  0
   -7.4462   -2.7990    0.0000 C   0  0  0  0  0  0  0  0  0  0  0  0
   -8.7452   -3.5490    0.0000 C   0  0  0  0  0  0  0  0  0  0  0  0
  -10.0442   -4.2990    0.0000 C   0  0  0  0  0  0  0  0  0  0  0  0
  -11.3433   -5.0490    0.0000 C   0  0  0  0  0  0  0  0  0  0  0  0
   -3.0000   -2.5981    0.0000 O   0  0  0  0  0  0  0  0  0  0  0  0
    0.0000    1.5000    0.0000 H   0  0  0  0  0  0  0  0  0  0  0  0
   -0.0000   -1.5000    0.0000 H   0  0  0  0  0  0  0  0  0  0  0  0
    1.5000   -1.5000    0.0000 H   0  0  0  0  0  0  0  0  0  0  0  0
    1.5000    1.5000    0.0000 H   0  0  0  0  0  0  0  0  0  0  0  0
    3.0000    1.5000    0.0000 H   0  0  0  0  0  0  0  0  0  0  0  0
    3.0000   -1.5000    0.0000 H   0  0  0  0  0  0  0  0  0  0  0  0
    4.5000   -1.5000    0.0000 H   0  0  0  0  0  0  0  0  0  0  0  0
    4.5000    1.5000    0.0000 H   0  0  0  0  0  0  0  0  0  0  0  0
    6.0000    1.5000    0.0000 H   0  0  0  0  0  0  0  0  0  0  0  0
    6.0000   -1.5000    0.0000 H   0  0  0  0  0  0  0  0  0  0  0  0
    9.0000    0.0000    0.0000 H   0  0  0  0  0  0  0  0  0  0  0  0
    7.5000   -1.5000    0.0000 H   0  0  0  0  0  0  0  0  0  0  0  0
    7.5000    1.5000    0.0000 H   0  0  0  0  0  0  0  0  0  0  0  0
   -2.4510   -3.5490    0.0000 H   0  0  0  0  0  0  0  0  0  0  0  0
    0.5490   -3.5490    0.0000 H   0  0  0  0  0  0  0  0  0  0  0  0
   -2.4510   -5.0490    0.0000 H   0  0  0  0  0  0  0  0  0  0  0  0
    0.5490   -5.0490    0.0000 H   0  0  0  0  0  0  0  0  0  0  0  0
    0.5490   -6.5490    0.0000 H   0  0  0  0  0  0  0  0  0  0  0  0
   -2.4510   -6.5490    0.0000 H   0  0  0  0  0  0  0  0  0  0  0  0
   -2.4510   -8.0490    0.0000 H   0  0  0  0  0  0  0  0  0  0  0  0
    0.5490   -8.0490    0.0000 H   0  0  0  0  0  0  0  0  0  0  0  0
    0.5490   -9.5490    0.0000 H   0  0  0  0  0  0  0  0  0  0  0  0
   -2.4510   -9.5490    0.0000 H   0  0  0  0  0  0  0  0  0  0  0  0
   -0.9510  -12.5490    0.0000 H   0  0  0  0  0  0  0  0  0  0  0  0
   -2.4510  -11.0490    0.0000 H   0  0  0  0  0  0  0  0  0  0  0  0
    0.5490  -11.0490    0.0000 H   0  0  0  0  0  0  0  0  0  0  0  0
   -4.0981   -2.5981    0.0000 H   0  0  0  0  0  0  0  0  0  0  0  0
   -5.5981    0.0000    0.0000 H   0  0  0  0  0  0  0  0  0  0  0  0
   -5.3971   -3.3481    0.0000 H   0  0  0  0  0  0  0  0  0  0  0  0
   -6.8971   -0.7500    0.0000 H   0  0  0  0  0  0  0  0  0  0  0  0
   -8.1962   -1.5000    0.0000 H   0  0  0  0  0  0  0  0  0  0  0  0
   -6.6962   -4.0981    0.0000 H   0  0  0  0  0  0  0  0  0  0  0  0
   -7.9952   -4.8481    0.0000 H   0  0  0  0  0  0  0  0  0  0  0  0
   -9.4952   -2.2500    0.0000 H   0  0  0  0  0  0  0  0  0  0  0  0
  -10.7942   -3.0000    0.0000 H   0  0  0  0  0  0  0  0  0  0  0  0
   -9.2942   -5.5981    0.0000 H   0  0  0  0  0  0  0  0  0  0  0  0
  -12.6423   -5.7990    0.0000 H   0  0  0  0  0  0  0  0  0  0  0  0
  -10.5933   -6.3481    0.0000 H   0  0  0  0  0  0  0  0  0  0  0  0
  -12.0933   -3.7500    0.0000 H   0  0  0  0  0  0  0  0  0  0  0  0
  1  2  1  0
  2  3  1  0
  3  4  1  0
  4  5  1  0
  5  6  1  0
  6  7  1  0
  7  8  1  0
  1  9  1  0
  9 10  1  0
 10 11  1  0
 11 12  1  0
 12 13  1  0
 13 14  1  0
 14 15  1  0
  1 16  1  0
 16 17  1  0
 17 18  1  0
 18 19  1  0
 19 20  1  0
 20 21  1  0
 21 22  1  0
  1 23  2  0
  3 24  1  0
  3 25  1  0
  4 26  1  0
  4 27  1  0
  5 28  1  0
  5 29  1  0
  6 30  1  0
  6 31  1  0
  7 32  1  0
  7 33  1  0
  8 34  1  0
  8 35  1  0
  8 36  1  0
 10 37  1  0
 10 38  1  0
 11 39  1  0
 11 40  1  0
 12 41  1  0
 12 42  1  0
 13 43  1  0
 13 44  1  0
 14 45  1  0
 14 46  1  0
 15 47  1  0
 15 48  1  0
 15 49  1  0
 17 50  1  0
 17 51  1  0
 18 52  1  0
 18 53  1  0
 19 54  1  0
 19 55  1  0
 20 56  1  0
 20 57  1  0
 21 58  1  0
 21 59  1  0
 22 60  1  0
 22 61  1  0
 22 62  1  0
M  END
$$$$
