
     RDKit          2D

 80 79  0  0  0  0  0  0  0  0999 V2000
   -2.2500   -1.2990    0.0000 P   0  0  0  0  0  5  0  0  0  0  0  0
   -1.5000    0.0000    0.0000 O   0  0  0  0  0  0  0  0  0  0  0  0
    0.0000    0.0000    0.0000 C   0  0  0  0  0  0  0  0  0  0  0  0
    1.5000    0.0000    0.0000 C   0  0  0  0  0  0  0  0  0  0  0  0
    3.0000    0.0000    0.0000 C   0  0  0  0  0  0  0  0  0  0  0  0
    4.5000    0.0000    0.0000 C   0  0  0  0  0  0  0  0  0  0  0  0
    1.5000    1.5000    0.0000 C   0  0  0  0  0  0  0  0  0  0  0  0
    1.5000    3.0000    0.0000 C   0  0  0  0  0  0  0  0  0  0  0  0
    1.5000    4.5000    0.0000 C   0  0  0  0  0  0  0  0  0  0  0  0
    1.5000    6.0000    0.0000 C   0  0  0  0  0  0  0  0  0  0  0  0
   -0.9510   -2.0490    0.0000 O   0  0  0  0  0  0  0  0  0  0  0  0
   -0.9510   -3.5490    0.0000 C   0  0  0  0  0  0  0  0  0  0  0  0
   -0.9510   -5.0490    0.0000 C   0  0  0  0  0  0  0  0  0  0  0  0
   -0.9510   -6.5490    0.0000 C   0  0  0  0  0  0  0  0  0  0  0  0
   -0.9510   -8.0490    0.0000 C   0  0  0  0  0  0  0  0  0  0  0  0
   -2.4510   -5.0490    0.0000 C   0  0  0  0  0  0  0  0  0  0  0  0
   -3.9510   -5.0490    0.0000 C   0  0  0  0  0  0  0  0  0  0  0  0
   -5.4510   -5.0490    0.0000 C   0  0  0  0  0  0  0  0  0  0  0  0
   -6.9510   -5.0490    0.0000 C   0  0  0  0  0  0  0  0  0  0  0  0
   -3.5490   -0.5490    0.0000 O   0  0  0  0  0  0  0  0  0  0  0  0
   -4.8481   -1.2990    0.0000 C   0  0  0  0  0  0  0  0  0  0  0  0
   -6.1471   -2.0490    0.0000 C   0  0  0  0  0  0  0  0  0  0  0  0
   -7.4462   -2.7990    0.0000 C   0  0  0  0  0  0  0  0  0  0  0  0
   -8.7452   -3.5490    0.0000 C   0  0  0  0  0  0  0  0  0  0  0  0
   -5.3971   -3.3481    0.0000 C   0  0  0  0  0  0  0  0  0  0  0  0
   -4.6471   -4.6471    0.0000 C   0  0  0  0  0  0  0  0  0  0  0  0
   -3.8971   -5.9462    0.0000 C   0  0  0  0  0  0  0  0  0  0  0  0
   -3.1471   -7.2452    0.0000 C   0  0  0  0  0  0  0  0  0  0  0  0
   -3.0000   -2.5981    0.0000 O   0  0  0  0  0  0  0  0  0  0  0  0
   -0.1080    0.8791    0.0000 H   0  0  0  0  0  0  0  0  0  0  0  0
   -0.0000   -1.5000    0.0000 H   0  0  0  0  0  0  0  0  0  0  0  0
    1.5000   -1.5000    0.0000 H   0  0  0  0  0  0  0  0  0  0  0  0
    3.0000   -1.5000    0.0000 H   0  0  0  0  0  0  0  0  0  0  0  0
    3.1080    0.8791    0.0000 H   0  0  0  0  0  0  0  0  0  0  0  0
    6.0000    0.0000    0.0000 H   0  0  0  0  0  0  0  0  0  0  0  0
    4.5000    1.5000    0.0000 H   0  0  0  0  0  0  0  0  0  0  0  0
    4.5000   -1.5000    0.0000 H   0  0  0  0  0  0  0  0  0  0  0  0
    0.6209    1.6080    0.0000 H   0  0  0  0  0  0  0  0  0  0  0  0
    2.3791    1.6080    0.0000 H   0  0  0  0  0  0  0  0  0  0  0  0
    3.0000    3.0000    0.0000 H   0  0  0  0  0  0  0  0  0  0  0  0
   -0.0000    3.0000    0.0000 H   0  0  0  0  0  0  0  0  0  0  0  0
   -0.0000    4.5000    0.0000 H   0  0  0  0  0  0  0  0  0  0  0  0
    3.0000    4.5000    0.0000 H   0  0  0  0  0  0  0  0  0  0  0  0
    1.5000    7.5000    0.0000 H   0  0  0  0  0  0  0  0  0  0  0  0
    3.0000    6.0000    0.0000 H   0  0  0  0  0  0  0  0  0  0  0  0
   -0.0000    6.0000    0.0000 H   0  0  0  0  0  0  0  0  0  0  0  0
   -2.4398   -3.3662    0.0000 H   0  0  0  0  0  0  0  0  0  0  0  0
    0.5490   -3.5490    0.0000 H   0  0  0  0  0  0  0  0  0  0  0  0
    0.5490   -5.0490    0.0000 H   0  0  0  0  0  0  0  0  0  0  0  0
   -1.8367   -6.5490    0.0000 H   0  0  0  0  0  0  0  0  0  0  0  0
    0.5490   -6.5490    0.0000 H   0  0  0  0  0  0  0  0  0  0  0  0
   -0.9510   -9.5490    0.0000 H   0  0  0  0  0  0  0  0  0  0  0  0
   -2.4398   -8.2319    0.0000 H   0  0  0  0  0  0  0  0  0  0  0  0
    0.5490   -8.0490    0.0000 H   0  0  0  0  0  0  0  0  0  0  0  0
   -2.4510   -5.9348    0.0000 H   0  0  0  0  0  0  0  0  0  0  0  0
   -2.6338   -3.5602    0.0000 H   0  0  0  0  0  0  0  0  0  0  0  0
   -3.5880   -6.5045    0.0000 H   0  0  0  0  0  0  0  0  0  0  0  0
   -3.7681   -3.5602    0.0000 H   0  0  0  0  0  0  0  0  0  0  0  0
   -5.6338   -6.5379    0.0000 H   0  0  0  0  0  0  0  0  0  0  0  0
   -5.0880   -3.5936    0.0000 H   0  0  0  0  0  0  0  0  0  0  0  0
   -8.4398   -5.2319    0.0000 H   0  0  0  0  0  0  0  0  0  0  0  0
   -6.9510   -6.5490    0.0000 H   0  0  0  0  0  0  0  0  0  0  0  0
   -6.9510   -3.5490    0.0000 H   0  0  0  0  0  0  0  0  0  0  0  0
   -3.9453   -2.4970    0.0000 H   0  0  0  0  0  0  0  0  0  0  0  0
   -5.5981    0.0000    0.0000 H   0  0  0  0  0  0  0  0  0  0  0  0
   -6.8971   -0.7500    0.0000 H   0  0  0  0  0  0  0  0  0  0  0  0
   -8.1962   -1.5000    0.0000 H   0  0  0  0  0  0  0  0  0  0  0  0
   -6.6962   -4.0981    0.0000 H   0  0  0  0  0  0  0  0  0  0  0  0
  -10.0442   -4.2990    0.0000 H   0  0  0  0  0  0  0  0  0  0  0  0
   -9.4952   -2.2500    0.0000 H   0  0  0  0  0  0  0  0  0  0  0  0
   -8.1591   -4.9298    0.0000 H   0  0  0  0  0  0  0  0  0  0  0  0
   -6.6962   -4.0981    0.0000 H   0  0  0  0  0  0  0  0  0  0  0  0
   -4.0163   -2.7620    0.0000 H   0  0  0  0  0  0  0  0  0  0  0  0
   -6.0890   -5.0605    0.0000 H   0  0  0  0  0  0  0  0  0  0  0  0
   -3.4492   -3.7444    0.0000 H   0  0  0  0  0  0  0  0  0  0  0  0
   -5.0950   -6.8489    0.0000 H   0  0  0  0  0  0  0  0  0  0  0  0
   -2.8182   -4.9041    0.0000 H   0  0  0  0  0  0  0  0  0  0  0  0
   -2.5611   -8.6260    0.0000 H   0  0  0  0  0  0  0  0  0  0  0  0
   -4.4462   -7.9952    0.0000 H   0  0  0  0  0  0  0  0  0  0  0  0
   -1.8481   -6.4952    0.0000 H   0  0  0  0  0  0  0  0  0  0  0  0
  1  2  1  0
  2  3  1  0
  3  4  1  0
  4  5  1  0
  5  6  1  0
  4  7  1  0
  7  8  1  0
  8  9  1  0
  9 10  1  0
  1 11  1  0
 11 12  1  0
 12 13  1  0
 13 14  1  0
 14 15  1  0
 13 16  1  0
 16 17  1  0
 17 18  1  0
 18 19  1  0
  1 20  1  0
 20 21  1  0
 21 22  1  0
 22 23  1  0
 23 24  1  0
 22 25  1  0
 25 26  1  0
 26 27  1  0
 27 28  1  0
  1 29  2  0
  3 30  1  0
  3 31  1  0
  4 32  1  0
  5 33  1  0
  5 34  1  0
  6 35  1  0
  6 36  1  0
  6 37  1  0
  7 38  1  0
  7 39  1  0
  8 40  1  0
  8 41  1  0
  9 42  1  0
  9 43  1  0
 10 44  1  0
 10 45  1  0
 10 46  1  0
 12 47  1  0
 12 48  1  0
 13 49  1  0
 14 50  1  0
 14 51  1  0
 15 52  1  0
 15 53  1  0
 15 54  1  0
 16 55  1  0
 16 56  1  0
 17 57  1  0
 17 58  1  0
 18 59  1  0
 18 60  1  0
 19 61  1  0
 19 62  1  0
 19 63  1  0
 21 64  1  0
 21 65  1  0
 22 66  1  0
 23 67  1  0
 23 68  1  0
 24 69  1  0
 24 70  1  0
 24 71  1  0
 25 72  1  0
 25 73  1  0
 26 74  1  0
 26 75  1  0
 27 76  1  0
 27 77  1  0
 28 78  1  0
 28 79  1  0
 28 80  1  0
M  END
$$$$
