
     RDKit          2D

 29 28  0  0  0  0  0  0  0  0999 V2000
   -2.5981    3.0000    0.0000 P   0  0  0  0  0  5  0  0  0  0  0  0
   -2.5981    1.5000    0.0000 O   0  0  0  0  0  0  0  0  0  0  0  0
   -1.2990    0.7500    0.0000 C   0  0  0  0  0  0  0  0  0  0  0  0
    0.0000    0.0000    0.0000 C   0  0  0  0  0  0  0  0  0  0  0  0
    1.2990    0.7500    0.0000 C   0  0  0  0  0  0  0  0  0  0  0  0
   -1.0981    3.0000    0.0000 O   0  0  0  0  0  0  0  0  0  0  0  0
   -0.3481    4.2990    0.0000 C   0  0  0  0  0  0  0  0  0  0  0  0
    0.4019    5.5981    0.0000 C   0  0  0  0  0  0  0  0  0  0  0  0
   -0.3481    6.8971    0.0000 C   0  0  0  0  0  0  0  0  0  0  0  0
   -4.0981    3.0000    0.0000 O   0  0  0  0  0  0  0  0  0  0  0  0
   -4.8481    4.2990    0.0000 C   0  0  0  0  0  0  0  0  0  0  0  0
   -5.5981    5.5981    0.0000 C   0  0  0  0  0  0  0  0  0  0  0  0
   -4.8481    6.8971    0.0000 C   0  0  0  0  0  0  0  0  0  0  0  0
   -2.5981    4.5000    0.0000 O   0  0  0  0  0  0  0  0  0  0  0  0
   -2.0490   -0.5490    0.0000 H   0  0  0  0  0  0  0  0  0  0  0  0
   -0.5490    2.0490    0.0000 H   0  0  0  0  0  0  0  0  0  0  0  0
   -0.0000   -1.5000    0.0000 H   0  0  0  0  0  0  0  0  0  0  0  0
    2.5981   -0.0000    0.0000 H   0  0  0  0  0  0  0  0  0  0  0  0
    1.2990    2.2500    0.0000 H   0  0  0  0  0  0  0  0  0  0  0  0
   -1.6471    5.0490    0.0000 H   0  0  0  0  0  0  0  0  0  0  0  0
    0.9510    3.5490    0.0000 H   0  0  0  0  0  0  0  0  0  0  0  0
    1.9019    5.5981    0.0000 H   0  0  0  0  0  0  0  0  0  0  0  0
    0.4019    8.1962    0.0000 H   0  0  0  0  0  0  0  0  0  0  0  0
   -1.8481    6.8971    0.0000 H   0  0  0  0  0  0  0  0  0  0  0  0
   -3.5490    5.0490    0.0000 H   0  0  0  0  0  0  0  0  0  0  0  0
   -6.1471    3.5490    0.0000 H   0  0  0  0  0  0  0  0  0  0  0  0
   -7.0981    5.5981    0.0000 H   0  0  0  0  0  0  0  0  0  0  0  0
   -5.5981    8.1962    0.0000 H   0  0  0  0  0  0  0  0  0  0  0  0
   -3.3481    6.8971    0.0000 H   0  0  0  0  0  0  0  0  0  0  0  0
  1  2  1  0
  2  3  1  0
  3  4  1  0
  4  5  2  3
  1  6  1  0
  6  7  1  0
  7  8  1  0
  8  9  2  3
  1 10  1  0
 10 11  1  0
 11 12  1  0
 12 13  2  3
  1 14  2  0
  3 15  1  0
  3 16  1  0
  4 17  1  0
  5 18  1  0
  5 19  1  0
  7 20  1  0
  7 21  1  0
  8 22  1  0
  9 23  1  0
  9 24  1  0
 11 25  1  0
 11 26  1  0
 12 27  1  0
 13 28  1  0
 13 29  1  0
M  END
$$$$
