
     RDKit          2D

 17 16  0  0  0  0  0  0  0  0999 V2000
    2.2500   -1.2990    0.0000 P   0  0  0  0  0  5  0  0  0  0  0  0
    1.5000    0.0000    0.0000 O   0  0  0  0  0  0  0  0  0  0  0  0
    0.0000    0.0000    0.0000 C   0  0  0  0  0  0  0  0  0  0  0  0
    0.9510   -2.0490    0.0000 O   0  0  0  0  0  0  0  0  0  0  0  0
    0.9510   -3.5490    0.0000 C   0  0  0  0  0  0  0  0  0  0  0  0
    3.5490   -0.5490    0.0000 O   0  0  0  0  0  0  0  0  0  0  0  0
    4.8481   -1.2990    0.0000 C   0  0  0  0  0  0  0  0  0  0  0  0
    3.0000   -2.5981    0.0000 O   0  0  0  0  0  0  0  0  0  0  0  0
   -1.5000    0.0000    0.0000 H   0  0  0  0  0  0  0  0  0  0  0  0
    0.0000    1.5000    0.0000 H   0  0  0  0  0  0  0  0  0  0  0  0
   -0.0000   -1.5000    0.0000 H   0  0  0  0  0  0  0  0  0  0  0  0
    0.9510   -5.0490    0.0000 H   0  0  0  0  0  0  0  0  0  0  0  0
   -0.5490   -3.5490    0.0000 H   0  0  0  0  0  0  0  0  0  0  0  0
    2.4510   -3.5490    0.0000 H   0  0  0  0  0  0  0  0  0  0  0  0
    6.1471   -2.0490    0.0000 H   0  0  0  0  0  0  0  0  0  0  0  0
    5.5981   -0.0000    0.0000 H   0  0  0  0  0  0  0  0  0  0  0  0
    4.0981   -2.5981    0.0000 H   0  0  0  0  0  0  0  0  0  0  0  0
  1  2  1  0
  2  3  1  0
  1  4  1  0
  4  5  1  0
  1  6  1  0
  6  7  1  0
  1  8  2  0
  3  9  1  0
  3 10  1  0
  3 11  1  0
  5 12  1  0
  5 13  1  0
  5 14  1  0
  7 15  1  0
  7 16  1  0
  7 17  1  0
M  END
$$$$
