
     RDKit          2D

 80 79  0  0  0  0  0  0  0  0999 V2000
   -2.2500   -1.2990    0.0000 P   0  0  0  0  0  5  0  0  0  0  0  0
   -1.5000    0.0000    0.0000 O   0  0  0  0  0  0  0  0  0  0  0  0
    0.0000    0.0000    0.0000 C   0  0  0  0  0  0  0  0  0  0  0  0
    1.5000    0.0000    0.0000 C   0  0  0  0  0  0  0  0  0  0  0  0
    3.0000    0.0000    0.0000 C   0  0  0  0  0  0  0  0  0  0  0  0
    4.5000    0.0000    0.0000 C   0  0  0  0  0  0  0  0  0  0  0  0
    6.0000    0.0000    0.0000 C   0  0  0  0  0  0  0  0  0  0  0  0
    7.5000    0.0000    0.0000 C   0  0  0  0  0  0  0  0  0  0  0  0
    9.0000    0.0000    0.0000 C   0  0  0  0  0  0  0  0  0  0  0  0
   10.5000    0.0000    0.0000 C   0  0  0  0  0  0  0  0  0  0  0  0
   -0.9510   -2.0490    0.0000 O   0  0  0  0  0  0  0  0  0  0  0  0
   -0.9510   -3.5490    0.0000 C   0  0  0  0  0  0  0  0  0  0  0  0
   -0.9510   -5.0490    0.0000 C   0  0  0  0  0  0  0  0  0  0  0  0
   -0.9510   -6.5490    0.0000 C   0  0  0  0  0  0  0  0  0  0  0  0
   -0.9510   -8.0490    0.0000 C   0  0  0  0  0  0  0  0  0  0  0  0
   -0.9510   -9.5490    0.0000 C   0  0  0  0  0  0  0  0  0  0  0  0
   -0.9510  -11.0490    0.0000 C   0  0  0  0  0  0  0  0  0  0  0  0
   -0.9510  -12.5490    0.0000 C   0  0  0  0  0  0  0  0  0  0  0  0
   -0.9510  -14.0490    0.0000 C   0  0  0  0  0  0  0  0  0  0  0  0
   -3.5490   -0.5490    0.0000 O   0  0  0  0  0  0  0  0  0  0  0  0
   -4.8481   -1.2990    0.0000 C   0  0  0  0  0  0  0  0  0  0  0  0
   -6.1471   -2.0490    0.0000 C   0  0  0  0  0  0  0  0  0  0  0  0
   -7.4462   -2.7990    0.0000 C   0  0  0  0  0  0  0  0  0  0  0  0
   -8.7452   -3.5490    0.0000 C   0  0  0  0  0  0  0  0  0  0  0  0
  -10.0442   -4.2990    0.0000 C   0  0  0  0  0  0  0  0  0  0  0  0
  -11.3433   -5.0490    0.0000 C   0  0  0  0  0  0  0  0  0  0  0  0
  -12.6423   -5.7990    0.0000 C   0  0  0  0  0  0  0  0  0  0  0  0
  -13.9413   -6.5490    0.0000 C   0  0  0  0  0  0  0  0  0  0  0  0
   -3.0000   -2.5981    0.0000 O   0  0  0  0  0  0  0  0  0  0  0  0
    0.0000    1.5000    0.0000 H   0  0  0  0  0  0  0  0  0  0  0  0
   -0.0000   -1.5000    0.0000 H   0  0  0  0  0  0  0  0  0  0  0  0
    1.5000   -1.5000    0.0000 H   0  0  0  0  0  0  0  0  0  0  0  0
    1.5000    1.5000    0.0000 H   0  0  0  0  0  0  0  0  0  0  0  0
    3.0000    1.5000    0.0000 H   0  0  0  0  0  0  0  0  0  0  0  0
    3.0000   -1.5000    0.0000 H   0  0  0  0  0  0  0  0  0  0  0  0
    4.5000   -1.5000    0.0000 H   0  0  0  0  0  0  0  0  0  0  0  0
    4.5000    1.5000    0.0000 H   0  0  0  0  0  0  0  0  0  0  0  0
    6.0000    1.5000    0.0000 H   0  0  0  0  0  0  0  0  0  0  0  0
    6.0000   -1.5000    0.0000 H   0  0  0  0  0  0  0  0  0  0  0  0
    7.5000   -1.5000    0.0000 H   0  0  0  0  0  0  0  0  0  0  0  0
    7.5000    1.5000    0.0000 H   0  0  0  0  0  0  0  0  0  0  0  0
    9.0000    1.5000    0.0000 H   0  0  0  0  0  0  0  0  0  0  0  0
    9.0000   -1.5000    0.0000 H   0  0  0  0  0  0  0  0  0  0  0  0
   12.0000    0.0000    0.0000 H   0  0  0  0  0  0  0  0  0  0  0  0
   10.5000   -1.5000    0.0000 H   0  0  0  0  0  0  0  0  0  0  0  0
   10.5000    1.5000    0.0000 H   0  0  0  0  0  0  0  0  0  0  0  0
   -2.4510   -3.5490    0.0000 H   0  0  0  0  0  0  0  0  0  0  0  0
    0.5490   -3.5490    0.0000 H   0  0  0  0  0  0  0  0  0  0  0  0
   -2.4510   -5.0490    0.0000 H   0  0  0  0  0  0  0  0  0  0  0  0
    0.5490   -5.0490    0.0000 H   0  0  0  0  0  0  0  0  0  0  0  0
    0.5490   -6.5490    0.0000 H   0  0  0  0  0  0  0  0  0  0  0  0
   -2.4510   -6.5490    0.0000 H   0  0  0  0  0  0  0  0  0  0  0  0
   -2.4510   -8.0490    0.0000 H   0  0  0  0  0  0  0  0  0  0  0  0
    0.5490   -8.0490    0.0000 H   0  0  0  0  0  0  0  0  0  0  0  0
    0.5490   -9.5490    0.0000 H   0  0  0  0  0  0  0  0  0  0  0  0
   -2.4510   -9.5490    0.0000 H   0  0  0  0  0  0  0  0  0  0  0  0
   -2.4510  -11.0490    0.0000 H   0  0  0  0  0  0  0  0  0  0  0  0
    0.5490  -11.0490    0.0000 H   0  0  0  0  0  0  0  0  0  0  0  0
    0.5490  -12.5490    0.0000 H   0  0  0  0  0  0  0  0  0  0  0  0
   -2.4510  -12.5490    0.0000 H   0  0  0  0  0  0  0  0  0  0  0  0
   -0.9510  -15.5490    0.0000 H   0  0  0  0  0  0  0  0  0  0  0  0
   -2.4510  -14.0490    0.0000 H   0  0  0  0  0  0  0  0  0  0  0  0
    0.5490  -14.0490    0.0000 H   0  0  0  0  0  0  0  0  0  0  0  0
   -4.0981   -2.5981    0.0000 H   0  0  0  0  0  0  0  0  0  0  0  0
   -5.5981    0.0000    0.0000 H   0  0  0  0  0  0  0  0  0  0  0  0
   -5.3971   -3.3481    0.0000 H   0  0  0  0  0  0  0  0  0  0  0  0
   -6.8971   -0.7500    0.0000 H   0  0  0  0  0  0  0  0  0  0  0  0
   -8.1962   -1.5000    0.0000 H   0  0  0  0  0  0  0  0  0  0  0  0
   -6.6962   -4.0981    0.0000 H   0  0  0  0  0  0  0  0  0  0  0  0
   -7.9952   -4.8481    0.0000 H   0  0  0  0  0  0  0  0  0  0  0  0
   -9.4952   -2.2500    0.0000 H   0  0  0  0  0  0  0  0  0  0  0  0
  -10.7942   -3.0000    0.0000 H   0  0  0  0  0  0  0  0  0  0  0  0
   -9.2942   -5.5981    0.0000 H   0  0  0  0  0  0  0  0  0  0  0  0
  -10.5933   -6.3481    0.0000 H   0  0  0  0  0  0  0  0  0  0  0  0
  -12.0933   -3.7500    0.0000 H   0  0  0  0  0  0  0  0  0  0  0  0
  -13.3923   -4.5000    0.0000 H   0  0  0  0  0  0  0  0  0  0  0  0
  -11.8923   -7.0981    0.0000 H   0  0  0  0  0  0  0  0  0  0  0  0
  -15.2404   -7.2990    0.0000 H   0  0  0  0  0  0  0  0  0  0  0  0
  -13.1913   -7.8481    0.0000 H   0  0  0  0  0  0  0  0  0  0  0  0
  -14.6913   -5.2500    0.0000 H   0  0  0  0  0  0  0  0  0  0  0  0
  1  2  1  0
  2  3  1  0
  3  4  1  0
  4  5  1  0
  5  6  1  0
  6  7  1  0
  7  8  1  0
  8  9  1  0
  9 10  1  0
  1 11  1  0
 11 12  1  0
 12 13  1  0
 13 14  1  0
 14 15  1  0
 15 16  1  0
 16 17  1  0
 17 18  1  0
 18 19  1  0
  1 20  1  0
 20 21  1  0
 21 22  1  0
 22 23  1  0
 23 24  1  0
 24 25  1  0
 25 26  1  0
 26 27  1  0
 27 28  1  0
  1 29  2  0
  3 30  1  0
  3 31  1  0
  4 32  1  0
  4 33  1  0
  5 34  1  0
  5 35  1  0
  6 36  1  0
  6 37  1  0
  7 38  1  0
  7 39  1  0
  8 40  1  0
  8 41  1  0
  9 42  1  0
  9 43  1  0
 10 44  1  0
 10 45  1  0
 10 46  1  0
 12 47  1  0
 12 48  1  0
 13 49  1  0
 13 50  1  0
 14 51  1  0
 14 52  1  0
 15 53  1  0
 15 54  1  0
 16 55  1  0
 16 56  1  0
 17 57  1  0
 17 58  1  0
 18 59  1  0
 18 60  1  0
 19 61  1  0
 19 62  1  0
 19 63  1  0
 21 64  1  0
 21 65  1  0
 22 66  1  0
 22 67  1  0
 23 68  1  0
 23 69  1  0
 24 70  1  0
 24 71  1  0
 25 72  1  0
 25 73  1  0
 26 74  1  0
 26 75  1  0
 27 76  1  0
 27 77  1  0
 28 78  1  0
 28 79  1  0
 28 80  1  0
M  END
$$$$
